version 2
run canvas-0-20220714-08:42:53-3693
attr configname canvas
attr datetime 20220714-08:42:53
attr experiment canvas
attr inifile omnetpp.ini
attr iterationvars ""
attr iterationvarsf ""
attr measurement ""
attr network RoutingScenario
attr processid 3693
attr repetition 0
attr replication #0
attr resultdir results
attr runnumber 0
attr seedset 0
param *.visualizer.*.obstacleLossVisualizer.displayIntersections true
param *.visualizer.*.obstacleLossVisualizer.displayFaceNormalVectors true
param *.visualizer.*.obstacleLossVisualizer.intersectionLineColor "\"yellow\""
param *.visualizer.*.mediumVisualizer.signalPropagationAnimationSpeed 500/3e8
param *.visualizer.*.mediumVisualizer.signalTransmissionAnimationSpeed 50000/3e8
param *.visualizer.*.mediumVisualizer.displaySignals true
param *.visualizer.canvasVisualizer.mediumVisualizer.displaySignalDepartures false
param *.visualizer.canvasVisualizer.mediumVisualizer.displaySignalArrivals false
param *.visualizer.*.physicalLinkVisualizer.displayLinks true
param *.visualizer.*.mobilityVisualizer.displayPositions true
param *.visualizer.*.mobilityVisualizer.displayOrientations true
param *.visualizer.*.mobilityVisualizer.displayVelocities true
param *.visualizer.*.mobilityVisualizer.displayMovementTrails true
param *.visualizer.*.mobilityVisualizer.moduleFilter "\"**.antenna.mobility\""
param *.node[5].router "\"FloodingRSA\""
param *.node[7].router "\"FloodingRSA\""
param *.node[*].router "\"SecureAodv\""
param *.node[*].numApps 1
param *.node[*].app[0].typename "\"UdpBasicApp\""
param *.node[*].app[0].destAddresses "\"node[*]\""
param *.node[*].app[0].destPort 5000
param *.node[*].app[0].messageLength 1000B
param *.node[*].app[0].sendInterval exponential(12ms)
param *.node[*].app[0].packetName "\"UDPData\""
param *.node[*].wlan[0].opMode "\"p\""
param *.node[*].wlan[0].radio.bandName "\"5.9 GHz\""
param *.node[*].wlan[0].radio.channelNumber 3
param *.node[*].wlan[0].radio.transmitter.power 20mW
param *.node[*].wlan[0].radio.bandwidth "10 MHz"
param *.node[*].ipv4.configurator.typename "\"HostAutoConfigurator\""
param *.node[*].ipv4.configurator.interfaces "\"wlan0\""
param *.node[*].ipv4.configurator.mcastGroups "\"224.0.0.1\""
param *.node[*].mobility.typename "\"VeinsInetMobility\""
param *.node[*].mobility.speed 20mps
param *.manager.updateInterval 0.1s
param *.manager.host "\"localhost\""
param *.manager.port 9999
param *.manager.autoShutdown true
param *.manager.launchConfig "xmldoc(\"bari.launchd.xml\")"
param *.manager.moduleType "\"vanetnetsec.veins_inet.VeinsInetRoutingCar\""
param *.physicalEnvironment.config "xmldoc(\"obstacles.xml\")"
param *.radioMedium.obstacleLoss.typename "\"IdealObstacleLoss\""

vector 0 RoutingScenario.node[0].wlan[0].radio radioMode:vector ETV
attr interpolationmode sample-hold
attr source radioModeChanged
attr title "Radio mode, vector"
vector 1 RoutingScenario.node[0].wlan[0].radio radioChannel:vector ETV
attr interpolationmode sample-hold
attr source radioChannelChanged
attr title "Radio channel, vector"
vector 2 RoutingScenario.node[0].wlan[0].radio receptionState:vector ETV
attr interpolationmode sample-hold
attr source receptionStateChanged
attr title "Radio reception state, vector"
vector 3 RoutingScenario.node[0].wlan[0].mac.dcf.recoveryProcedure contentionWindowChanged:vector ETV
attr interpolationmode sample-hold
attr title "contention window, vector"
vector 4 RoutingScenario.node[0].app[0] packetSent:vector(packetBytes) ETV
attr interpolationmode none
attr source packetSent
attr title "packets sent, vector(packetBytes)"
vector 5 RoutingScenario.node[0].udp packetSent:vector(packetBytes) ETV
attr interpolationmode none
attr source packetSent
attr title "packets sent, vector(packetBytes)"
vector 6 RoutingScenario.node[0].lo[0].lo rcvdPkFromHl:vector(packetBytes) ETV
attr interpolationmode none
attr source packetReceivedFromUpper
attr title "packets received from higher layer, vector(packetBytes)"
vector 7 RoutingScenario.node[0].lo[0].lo passedUpPk:vector(packetBytes) ETV
attr interpolationmode none
attr source packetSentToUpper
attr title "packets passed to higher layer, vector(packetBytes)"
vector 8 RoutingScenario.node[0].udp packetReceived:vector(packetBytes) ETV
attr interpolationmode none
attr source packetReceived
attr title "packets received, vector(packetBytes)"
vector 9 RoutingScenario.node[0].udp droppedPkWrongPort:vector(count) ETV
attr interpolationmode none
attr source packetDropReasonIsNoPortFound(packetDropped)
attr title "packets dropped (wrong port), vector(count)"
vector 10 RoutingScenario.node[1].wlan[0].radio radioMode:vector ETV
attr interpolationmode sample-hold
attr source radioModeChanged
attr title "Radio mode, vector"
vector 11 RoutingScenario.node[1].wlan[0].radio radioChannel:vector ETV
attr interpolationmode sample-hold
attr source radioChannelChanged
attr title "Radio channel, vector"
vector 12 RoutingScenario.node[1].wlan[0].radio receptionState:vector ETV
attr interpolationmode sample-hold
attr source receptionStateChanged
attr title "Radio reception state, vector"
vector 13 RoutingScenario.node[1].wlan[0].mac.dcf.recoveryProcedure contentionWindowChanged:vector ETV
attr interpolationmode sample-hold
attr title "contention window, vector"
vector 14 RoutingScenario.node[2].wlan[0].radio radioMode:vector ETV
attr interpolationmode sample-hold
attr source radioModeChanged
attr title "Radio mode, vector"
vector 15 RoutingScenario.node[2].wlan[0].radio radioChannel:vector ETV
attr interpolationmode sample-hold
attr source radioChannelChanged
attr title "Radio channel, vector"
vector 16 RoutingScenario.node[2].wlan[0].radio receptionState:vector ETV
attr interpolationmode sample-hold
attr source receptionStateChanged
attr title "Radio reception state, vector"
vector 17 RoutingScenario.node[2].wlan[0].mac.dcf.recoveryProcedure contentionWindowChanged:vector ETV
attr interpolationmode sample-hold
attr title "contention window, vector"
vector 18 RoutingScenario.node[3].wlan[0].radio radioMode:vector ETV
attr interpolationmode sample-hold
attr source radioModeChanged
attr title "Radio mode, vector"
vector 19 RoutingScenario.node[3].wlan[0].radio radioChannel:vector ETV
attr interpolationmode sample-hold
attr source radioChannelChanged
attr title "Radio channel, vector"
vector 20 RoutingScenario.node[3].wlan[0].radio receptionState:vector ETV
attr interpolationmode sample-hold
attr source receptionStateChanged
attr title "Radio reception state, vector"
vector 21 RoutingScenario.node[3].wlan[0].mac.dcf.recoveryProcedure contentionWindowChanged:vector ETV
attr interpolationmode sample-hold
attr title "contention window, vector"
vector 22 RoutingScenario.node[4].wlan[0].radio radioMode:vector ETV
attr interpolationmode sample-hold
attr source radioModeChanged
attr title "Radio mode, vector"
vector 23 RoutingScenario.node[4].wlan[0].radio radioChannel:vector ETV
attr interpolationmode sample-hold
attr source radioChannelChanged
attr title "Radio channel, vector"
vector 24 RoutingScenario.node[4].wlan[0].radio receptionState:vector ETV
attr interpolationmode sample-hold
attr source receptionStateChanged
attr title "Radio reception state, vector"
vector 25 RoutingScenario.node[4].wlan[0].mac.dcf.recoveryProcedure contentionWindowChanged:vector ETV
attr interpolationmode sample-hold
attr title "contention window, vector"
vector 26 RoutingScenario.node[5].wlan[0].radio radioMode:vector ETV
attr interpolationmode sample-hold
attr source radioModeChanged
attr title "Radio mode, vector"
vector 27 RoutingScenario.node[5].wlan[0].radio radioChannel:vector ETV
attr interpolationmode sample-hold
attr source radioChannelChanged
attr title "Radio channel, vector"
vector 28 RoutingScenario.node[5].wlan[0].radio receptionState:vector ETV
attr interpolationmode sample-hold
attr source receptionStateChanged
attr title "Radio reception state, vector"
vector 29 RoutingScenario.node[5].wlan[0].mac.dcf.recoveryProcedure contentionWindowChanged:vector ETV
attr interpolationmode sample-hold
attr title "contention window, vector"
vector 30 RoutingScenario.node[6].wlan[0].radio radioMode:vector ETV
attr interpolationmode sample-hold
attr source radioModeChanged
attr title "Radio mode, vector"
vector 31 RoutingScenario.node[6].wlan[0].radio radioChannel:vector ETV
attr interpolationmode sample-hold
attr source radioChannelChanged
attr title "Radio channel, vector"
vector 32 RoutingScenario.node[6].wlan[0].radio receptionState:vector ETV
attr interpolationmode sample-hold
attr source receptionStateChanged
attr title "Radio reception state, vector"
vector 33 RoutingScenario.node[6].wlan[0].mac.dcf.recoveryProcedure contentionWindowChanged:vector ETV
attr interpolationmode sample-hold
attr title "contention window, vector"
vector 34 RoutingScenario.node[7].wlan[0].radio radioMode:vector ETV
attr interpolationmode sample-hold
attr source radioModeChanged
attr title "Radio mode, vector"
vector 35 RoutingScenario.node[7].wlan[0].radio radioChannel:vector ETV
attr interpolationmode sample-hold
attr source radioChannelChanged
attr title "Radio channel, vector"
vector 36 RoutingScenario.node[7].wlan[0].radio receptionState:vector ETV
attr interpolationmode sample-hold
attr source receptionStateChanged
attr title "Radio reception state, vector"
vector 37 RoutingScenario.node[7].wlan[0].mac.dcf.recoveryProcedure contentionWindowChanged:vector ETV
attr interpolationmode sample-hold
attr title "contention window, vector"
vector 38 RoutingScenario.node[8].wlan[0].radio radioMode:vector ETV
attr interpolationmode sample-hold
attr source radioModeChanged
attr title "Radio mode, vector"
vector 39 RoutingScenario.node[8].wlan[0].radio radioChannel:vector ETV
attr interpolationmode sample-hold
attr source radioChannelChanged
attr title "Radio channel, vector"
vector 40 RoutingScenario.node[8].wlan[0].radio receptionState:vector ETV
attr interpolationmode sample-hold
attr source receptionStateChanged
attr title "Radio reception state, vector"
vector 41 RoutingScenario.node[8].wlan[0].mac.dcf.recoveryProcedure contentionWindowChanged:vector ETV
attr interpolationmode sample-hold
attr title "contention window, vector"
vector 42 RoutingScenario.node[9].wlan[0].radio radioMode:vector ETV
attr interpolationmode sample-hold
attr source radioModeChanged
attr title "Radio mode, vector"
vector 43 RoutingScenario.node[9].wlan[0].radio radioChannel:vector ETV
attr interpolationmode sample-hold
attr source radioChannelChanged
attr title "Radio channel, vector"
vector 44 RoutingScenario.node[9].wlan[0].radio receptionState:vector ETV
attr interpolationmode sample-hold
attr source receptionStateChanged
attr title "Radio reception state, vector"
vector 45 RoutingScenario.node[9].wlan[0].mac.dcf.recoveryProcedure contentionWindowChanged:vector ETV
attr interpolationmode sample-hold
attr title "contention window, vector"
vector 46 RoutingScenario.node[10].wlan[0].radio radioMode:vector ETV
attr interpolationmode sample-hold
attr source radioModeChanged
attr title "Radio mode, vector"
vector 47 RoutingScenario.node[10].wlan[0].radio radioChannel:vector ETV
attr interpolationmode sample-hold
attr source radioChannelChanged
attr title "Radio channel, vector"
vector 48 RoutingScenario.node[10].wlan[0].radio receptionState:vector ETV
attr interpolationmode sample-hold
attr source receptionStateChanged
attr title "Radio reception state, vector"
vector 49 RoutingScenario.node[10].wlan[0].mac.dcf.recoveryProcedure contentionWindowChanged:vector ETV
attr interpolationmode sample-hold
attr title "contention window, vector"
vector 50 RoutingScenario.node[1].app[0] packetSent:vector(packetBytes) ETV
attr interpolationmode none
attr source packetSent
attr title "packets sent, vector(packetBytes)"
vector 51 RoutingScenario.node[2].app[0] packetSent:vector(packetBytes) ETV
attr interpolationmode none
attr source packetSent
attr title "packets sent, vector(packetBytes)"
vector 52 RoutingScenario.node[3].app[0] packetSent:vector(packetBytes) ETV
attr interpolationmode none
attr source packetSent
attr title "packets sent, vector(packetBytes)"
vector 53 RoutingScenario.node[4].app[0] packetSent:vector(packetBytes) ETV
attr interpolationmode none
attr source packetSent
attr title "packets sent, vector(packetBytes)"
vector 54 RoutingScenario.node[5].app[0] packetSent:vector(packetBytes) ETV
attr interpolationmode none
attr source packetSent
attr title "packets sent, vector(packetBytes)"
vector 55 RoutingScenario.node[6].app[0] packetSent:vector(packetBytes) ETV
attr interpolationmode none
attr source packetSent
attr title "packets sent, vector(packetBytes)"
vector 56 RoutingScenario.node[7].app[0] packetSent:vector(packetBytes) ETV
attr interpolationmode none
attr source packetSent
attr title "packets sent, vector(packetBytes)"
vector 57 RoutingScenario.node[8].app[0] packetSent:vector(packetBytes) ETV
attr interpolationmode none
attr source packetSent
attr title "packets sent, vector(packetBytes)"
vector 58 RoutingScenario.node[9].app[0] packetSent:vector(packetBytes) ETV
attr interpolationmode none
attr source packetSent
attr title "packets sent, vector(packetBytes)"
vector 59 RoutingScenario.node[10].app[0] packetSent:vector(packetBytes) ETV
attr interpolationmode none
attr source packetSent
attr title "packets sent, vector(packetBytes)"
vector 60 RoutingScenario.node[1].udp packetSent:vector(packetBytes) ETV
attr interpolationmode none
attr source packetSent
attr title "packets sent, vector(packetBytes)"
vector 61 RoutingScenario.node[2].udp packetSent:vector(packetBytes) ETV
attr interpolationmode none
attr source packetSent
attr title "packets sent, vector(packetBytes)"
vector 62 RoutingScenario.node[3].udp packetSent:vector(packetBytes) ETV
attr interpolationmode none
attr source packetSent
attr title "packets sent, vector(packetBytes)"
vector 63 RoutingScenario.node[4].udp packetSent:vector(packetBytes) ETV
attr interpolationmode none
attr source packetSent
attr title "packets sent, vector(packetBytes)"
vector 64 RoutingScenario.node[5].udp packetSent:vector(packetBytes) ETV
attr interpolationmode none
attr source packetSent
attr title "packets sent, vector(packetBytes)"
vector 65 RoutingScenario.node[6].udp packetSent:vector(packetBytes) ETV
attr interpolationmode none
attr source packetSent
attr title "packets sent, vector(packetBytes)"
vector 66 RoutingScenario.node[7].udp packetSent:vector(packetBytes) ETV
attr interpolationmode none
attr source packetSent
attr title "packets sent, vector(packetBytes)"
vector 67 RoutingScenario.node[8].udp packetSent:vector(packetBytes) ETV
attr interpolationmode none
attr source packetSent
attr title "packets sent, vector(packetBytes)"
vector 68 RoutingScenario.node[9].udp packetSent:vector(packetBytes) ETV
attr interpolationmode none
attr source packetSent
attr title "packets sent, vector(packetBytes)"
vector 69 RoutingScenario.node[10].udp packetSent:vector(packetBytes) ETV
attr interpolationmode none
attr source packetSent
attr title "packets sent, vector(packetBytes)"
vector 70 RoutingScenario.node[5].wlan[0].mac packetReceivedFromUpper:vector(packetBytes) ETV
attr interpolationmode none
attr title "packets received from upper layer, vector(packetBytes)"
vector 71 RoutingScenario.node[5].wlan[0].mac.dcf.channelAccess.pendingQueue packetPushed:vector(packetBytes) ETV
attr interpolationmode none
attr title "packet pushed, vector(packetBytes)"
vector 72 RoutingScenario.node[5].wlan[0].mac.dcf.channelAccess.pendingQueue queueLength:vector ETV
attr interpolationmode sample-hold
attr source "count(packetPushed) - count(packetPopped) - count(packetRemoved) - count(packetDropped)"
attr title "queue length, vector"
vector 73 RoutingScenario.node[5].wlan[0].mac.dcf.channelAccess.contention backoffPeriodGenerated:vector ETV
attr interpolationmode none
attr title "backoff periods, vector"
vector 74 RoutingScenario.node[5].wlan[0].mac.dcf.channelAccess.contention backoffActive:vector ETV
attr interpolationmode sample-hold
attr source count(backoffStarted)-count(backoffStopped)
attr title "backoff active, vector"
vector 75 RoutingScenario.node[7].wlan[0].mac packetReceivedFromUpper:vector(packetBytes) ETV
attr interpolationmode none
attr title "packets received from upper layer, vector(packetBytes)"
vector 76 RoutingScenario.node[7].wlan[0].mac.dcf.channelAccess.pendingQueue packetPushed:vector(packetBytes) ETV
attr interpolationmode none
attr title "packet pushed, vector(packetBytes)"
vector 77 RoutingScenario.node[7].wlan[0].mac.dcf.channelAccess.pendingQueue queueLength:vector ETV
attr interpolationmode sample-hold
attr source "count(packetPushed) - count(packetPopped) - count(packetRemoved) - count(packetDropped)"
attr title "queue length, vector"
vector 78 RoutingScenario.node[7].wlan[0].mac.dcf.channelAccess.contention backoffPeriodGenerated:vector ETV
attr interpolationmode none
attr title "backoff periods, vector"
vector 79 RoutingScenario.node[7].wlan[0].mac.dcf.channelAccess.contention backoffActive:vector ETV
attr interpolationmode sample-hold
attr source count(backoffStarted)-count(backoffStopped)
attr title "backoff active, vector"
vector 80 RoutingScenario.node[5].wlan[0].mac.dcf.channelAccess.pendingQueue packetPopped:vector(packetBytes) ETV
attr interpolationmode none
attr title "packet popped, vector(packetBytes)"
vector 81 RoutingScenario.node[5].wlan[0].mac.dcf.channelAccess.pendingQueue queueingTime:vector ETV
attr interpolationmode none
attr source queueingTime(packetPopped)
attr title "queueing times, vector"
attr unit s
vector 82 RoutingScenario.node[5].wlan[0].mac.dcf.channelAccess.inProgressFrames queueLength:vector ETV
attr interpolationmode sample-hold
attr source "count(packetEnqueued) - count(packetDequeued)"
attr title "queue length, vector"
vector 83 RoutingScenario.node[5].wlan[0].mac.dcf datarateSelected:vector ETV
attr interpolationmode none
attr title "datarates selected, vector"
vector 84 RoutingScenario.node[5].wlan[0].mac packetSentToLower:vector(packetBytes) ETV
attr interpolationmode none
attr title "packets sent to lower layer, vector(packetBytes)"
vector 85 RoutingScenario.node[5].wlan[0].mac.dcf frameSequenceActive:vector ETV
attr interpolationmode sample-hold
attr source count(frameSequenceStarted)-count(frameSequenceFinished)
attr title "frame sequence active, vector"
vector 86 RoutingScenario.node[5].wlan[0].radio transmissionState:vector ETV
attr interpolationmode sample-hold
attr source transmissionStateChanged
attr title "Radio transmission state, vector"
vector 87 RoutingScenario.node[5].wlan[0].mac.dcf packetSentToPeer:vector(packetBytes) ETV
attr interpolationmode none
attr title "packets sent, vector(packetBytes)"
vector 88 RoutingScenario.node[5].wlan[0].mac.dcf packetSentToPeerMulticast:vector(packetBytes) ETV
attr interpolationmode none
attr source ieee80211Multicast(packetSentToPeer)
attr title "packets sent: multicast, vector(packetBytes)"
vector 89 RoutingScenario.node[5].wlan[0].mac.dcf packetSentToPeerBroadcast:vector(packetBytes) ETV
attr interpolationmode none
attr source ieee80211Broadcast(packetSentToPeer)
attr title "packets sent: broadcast , vector(packetBytes)"
vector 90 RoutingScenario.node[5].wlan[0].mac.dcf packetSentToPeerWithoutRetry:vector(packetBytes) ETV
attr interpolationmode none
attr source ieee80211NotRetry(packetSentToPeer)
attr title "packets sent: without retry, vector(packetBytes)"
vector 91 RoutingScenario.node[5].wlan[0].mac.dcf.channelAccess.inProgressFrames queueingTime:vector ETV
attr interpolationmode none
attr source queueingTime(packetDequeued)
attr title "queueing times, vector"
vector 92 RoutingScenario.node[1].wlan[0].mac packetReceivedFromLower:vector(packetBytes) ETV
attr interpolationmode none
attr title "packets received from lower layer, vector(packetBytes)"
vector 93 RoutingScenario.node[1].wlan[0].mac.dcf packetReceivedFromPeer:vector(packetBytes) ETV
attr interpolationmode none
attr title "packets received, vector(packetBytes)"
vector 94 RoutingScenario.node[1].wlan[0].mac.dcf packetReceivedFromPeerMulticast:vector(packetBytes) ETV
attr interpolationmode none
attr source ieee80211Multicast(packetReceivedFromPeer)
attr title "packets received: multicast, vector(packetBytes)"
vector 95 RoutingScenario.node[1].wlan[0].mac.dcf packetReceivedFromPeerBroadcast:vector(packetBytes) ETV
attr interpolationmode none
attr source ieee80211Broadcast(packetReceivedFromPeer)
attr title "packets received: broadcast, vector(packetBytes)"
vector 96 RoutingScenario.node[1].wlan[0].mac.dcf packetReceivedFromPeerWithoutRetry:vector(packetBytes) ETV
attr interpolationmode none
attr source ieee80211NotRetry(packetReceivedFromPeer)
attr title "packets received: without retry, vector(packetBytes)"
vector 97 RoutingScenario.node[1].wlan[0].mac packetSentToUpper:vector(packetBytes) ETV
attr interpolationmode none
attr title "packets sent to upper layer, vector(packetBytes)"
vector 98 RoutingScenario.node[1].udp packetReceived:vector(packetBytes) ETV
attr interpolationmode none
attr source packetReceived
attr title "packets received, vector(packetBytes)"
vector 99 RoutingScenario.node[1].udp passedUpPk:vector(count) ETV
attr interpolationmode none
attr source packetSentToUpper
attr title "packets passed up, vector(count)"
vector 100 RoutingScenario.node[8].wlan[0].mac packetReceivedFromLower:vector(packetBytes) ETV
attr interpolationmode none
attr title "packets received from lower layer, vector(packetBytes)"
vector 101 RoutingScenario.node[8].wlan[0].mac.dcf packetReceivedFromPeer:vector(packetBytes) ETV
attr interpolationmode none
attr title "packets received, vector(packetBytes)"
vector 102 RoutingScenario.node[8].wlan[0].mac.dcf packetReceivedFromPeerMulticast:vector(packetBytes) ETV
attr interpolationmode none
attr source ieee80211Multicast(packetReceivedFromPeer)
attr title "packets received: multicast, vector(packetBytes)"
vector 103 RoutingScenario.node[8].wlan[0].mac.dcf packetReceivedFromPeerBroadcast:vector(packetBytes) ETV
attr interpolationmode none
attr source ieee80211Broadcast(packetReceivedFromPeer)
attr title "packets received: broadcast, vector(packetBytes)"
vector 104 RoutingScenario.node[8].wlan[0].mac.dcf packetReceivedFromPeerWithoutRetry:vector(packetBytes) ETV
attr interpolationmode none
attr source ieee80211NotRetry(packetReceivedFromPeer)
attr title "packets received: without retry, vector(packetBytes)"
vector 105 RoutingScenario.node[8].wlan[0].mac packetSentToUpper:vector(packetBytes) ETV
attr interpolationmode none
attr title "packets sent to upper layer, vector(packetBytes)"
vector 106 RoutingScenario.node[8].udp packetReceived:vector(packetBytes) ETV
attr interpolationmode none
attr source packetReceived
attr title "packets received, vector(packetBytes)"
vector 107 RoutingScenario.node[8].udp passedUpPk:vector(count) ETV
attr interpolationmode none
attr source packetSentToUpper
attr title "packets passed up, vector(count)"
vector 108 RoutingScenario.node[7].wlan[0].mac.dcf.channelAccess.pendingQueue packetPopped:vector(packetBytes) ETV
attr interpolationmode none
attr title "packet popped, vector(packetBytes)"
vector 109 RoutingScenario.node[7].wlan[0].mac.dcf.channelAccess.pendingQueue queueingTime:vector ETV
attr interpolationmode none
attr source queueingTime(packetPopped)
attr title "queueing times, vector"
attr unit s
vector 110 RoutingScenario.node[7].wlan[0].mac.dcf.channelAccess.inProgressFrames queueLength:vector ETV
attr interpolationmode sample-hold
attr source "count(packetEnqueued) - count(packetDequeued)"
attr title "queue length, vector"
vector 111 RoutingScenario.node[7].wlan[0].mac.dcf datarateSelected:vector ETV
attr interpolationmode none
attr title "datarates selected, vector"
vector 112 RoutingScenario.node[7].wlan[0].mac packetSentToLower:vector(packetBytes) ETV
attr interpolationmode none
attr title "packets sent to lower layer, vector(packetBytes)"
vector 113 RoutingScenario.node[7].wlan[0].mac.dcf frameSequenceActive:vector ETV
attr interpolationmode sample-hold
attr source count(frameSequenceStarted)-count(frameSequenceFinished)
attr title "frame sequence active, vector"
vector 114 RoutingScenario.node[7].wlan[0].radio transmissionState:vector ETV
attr interpolationmode sample-hold
attr source transmissionStateChanged
attr title "Radio transmission state, vector"
vector 115 RoutingScenario.node[7].wlan[0].mac.dcf packetSentToPeer:vector(packetBytes) ETV
attr interpolationmode none
attr title "packets sent, vector(packetBytes)"
vector 116 RoutingScenario.node[7].wlan[0].mac.dcf packetSentToPeerMulticast:vector(packetBytes) ETV
attr interpolationmode none
attr source ieee80211Multicast(packetSentToPeer)
attr title "packets sent: multicast, vector(packetBytes)"
vector 117 RoutingScenario.node[7].wlan[0].mac.dcf packetSentToPeerBroadcast:vector(packetBytes) ETV
attr interpolationmode none
attr source ieee80211Broadcast(packetSentToPeer)
attr title "packets sent: broadcast , vector(packetBytes)"
vector 118 RoutingScenario.node[7].wlan[0].mac.dcf packetSentToPeerWithoutRetry:vector(packetBytes) ETV
attr interpolationmode none
attr source ieee80211NotRetry(packetSentToPeer)
attr title "packets sent: without retry, vector(packetBytes)"
vector 119 RoutingScenario.node[7].wlan[0].mac.dcf.channelAccess.inProgressFrames queueingTime:vector ETV
attr interpolationmode none
attr source queueingTime(packetDequeued)
attr title "queueing times, vector"
vector 120 RoutingScenario.node[7].wlan[0].mac.dcf.channelAccess.pendingQueue packetDropQueueOverflow:vector(packetBytes) ETV
attr interpolationmode none
attr source packetDropReasonIsQueueOverflow(packetDropped)
attr title "packet drops: queue overflow, vector(packetBytes)"
vector 121 RoutingScenario.node[7].wlan[0].mac.dcf packetDrop:vector(packetBytes) ETV
attr interpolationmode none
attr source packetDropped
attr title "packet drops, vector(packetBytes)"
vector 122 RoutingScenario.node[7].wlan[0].mac.dcf packetDropQueueOverflow:vector(packetBytes) ETV
attr interpolationmode none
attr source packetDropReasonIsQueueOverflow(packetDropped)
attr title "packet drops: queue overflow, vector(packetBytes)"
vector 123 RoutingScenario.node[7].wlan[0].mac packetDrop:vector(packetBytes) ETV
attr interpolationmode none
attr source packetDropped
attr title "packet drops, vector(packetBytes)"
vector 124 RoutingScenario.node[7].wlan[0].mac packetDropQueueOverflow:vector(packetBytes) ETV
attr interpolationmode none
attr source packetDropReasonIsQueueOverflow(packetDropped)
attr title "packet drops: queue overflow, vector(packetBytes)"
vector 125 RoutingScenario.node[5].wlan[0].mac.dcf.channelAccess.pendingQueue packetDropQueueOverflow:vector(packetBytes) ETV
attr interpolationmode none
attr source packetDropReasonIsQueueOverflow(packetDropped)
attr title "packet drops: queue overflow, vector(packetBytes)"
vector 126 RoutingScenario.node[5].wlan[0].mac.dcf packetDrop:vector(packetBytes) ETV
attr interpolationmode none
attr source packetDropped
attr title "packet drops, vector(packetBytes)"
vector 127 RoutingScenario.node[5].wlan[0].mac.dcf packetDropQueueOverflow:vector(packetBytes) ETV
attr interpolationmode none
attr source packetDropReasonIsQueueOverflow(packetDropped)
attr title "packet drops: queue overflow, vector(packetBytes)"
vector 128 RoutingScenario.node[5].wlan[0].mac packetDrop:vector(packetBytes) ETV
attr interpolationmode none
attr source packetDropped
attr title "packet drops, vector(packetBytes)"
vector 129 RoutingScenario.node[5].wlan[0].mac packetDropQueueOverflow:vector(packetBytes) ETV
attr interpolationmode none
attr source packetDropReasonIsQueueOverflow(packetDropped)
attr title "packet drops: queue overflow, vector(packetBytes)"
vector 130 RoutingScenario.node[1].wlan[0].mac packetDrop:vector(packetBytes) ETV
attr interpolationmode none
attr source packetDropped
attr title "packet drops, vector(packetBytes)"
vector 131 RoutingScenario.node[1].wlan[0].mac packetDropIncorrectlyReceived:vector(packetBytes) ETV
attr interpolationmode none
attr source packetDropReasonIsIncorrectlyReceived(packetDropped)
attr title "packet drops: incorrectly received, vector(packetBytes)"
vector 132 RoutingScenario.node[8].wlan[0].mac packetDrop:vector(packetBytes) ETV
attr interpolationmode none
attr source packetDropped
attr title "packet drops, vector(packetBytes)"
vector 133 RoutingScenario.node[8].wlan[0].mac packetDropIncorrectlyReceived:vector(packetBytes) ETV
attr interpolationmode none
attr source packetDropReasonIsIncorrectlyReceived(packetDropped)
attr title "packet drops: incorrectly received, vector(packetBytes)"
vector 134 RoutingScenario.node[2].wlan[0].mac packetReceivedFromUpper:vector(packetBytes) ETV
attr interpolationmode none
attr title "packets received from upper layer, vector(packetBytes)"
vector 135 RoutingScenario.node[2].wlan[0].mac.dcf.channelAccess.pendingQueue packetPushed:vector(packetBytes) ETV
attr interpolationmode none
attr title "packet pushed, vector(packetBytes)"
vector 136 RoutingScenario.node[2].wlan[0].mac.dcf.channelAccess.pendingQueue queueLength:vector ETV
attr interpolationmode sample-hold
attr source "count(packetPushed) - count(packetPopped) - count(packetRemoved) - count(packetDropped)"
attr title "queue length, vector"
vector 137 RoutingScenario.node[2].wlan[0].mac.dcf.channelAccess.contention backoffPeriodGenerated:vector ETV
attr interpolationmode none
attr title "backoff periods, vector"
vector 138 RoutingScenario.node[2].wlan[0].mac.dcf.channelAccess.contention backoffActive:vector ETV
attr interpolationmode sample-hold
attr source count(backoffStarted)-count(backoffStopped)
attr title "backoff active, vector"
vector 139 RoutingScenario.node[2].wlan[0].mac.dcf.channelAccess.pendingQueue packetPopped:vector(packetBytes) ETV
attr interpolationmode none
attr title "packet popped, vector(packetBytes)"
vector 140 RoutingScenario.node[2].wlan[0].mac.dcf.channelAccess.pendingQueue queueingTime:vector ETV
attr interpolationmode none
attr source queueingTime(packetPopped)
attr title "queueing times, vector"
attr unit s
vector 141 RoutingScenario.node[2].wlan[0].mac.dcf.channelAccess.inProgressFrames queueLength:vector ETV
attr interpolationmode sample-hold
attr source "count(packetEnqueued) - count(packetDequeued)"
attr title "queue length, vector"
vector 142 RoutingScenario.node[2].wlan[0].mac.dcf datarateSelected:vector ETV
attr interpolationmode none
attr title "datarates selected, vector"
vector 143 RoutingScenario.node[2].wlan[0].mac packetSentToLower:vector(packetBytes) ETV
attr interpolationmode none
attr title "packets sent to lower layer, vector(packetBytes)"
vector 144 RoutingScenario.node[2].wlan[0].mac.dcf frameSequenceActive:vector ETV
attr interpolationmode sample-hold
attr source count(frameSequenceStarted)-count(frameSequenceFinished)
attr title "frame sequence active, vector"
vector 145 RoutingScenario.node[2].wlan[0].radio transmissionState:vector ETV
attr interpolationmode sample-hold
attr source transmissionStateChanged
attr title "Radio transmission state, vector"
vector 146 RoutingScenario.node[2].wlan[0].mac.dcf packetSentToPeer:vector(packetBytes) ETV
attr interpolationmode none
attr title "packets sent, vector(packetBytes)"
vector 147 RoutingScenario.node[2].wlan[0].mac.dcf packetSentToPeerMulticast:vector(packetBytes) ETV
attr interpolationmode none
attr source ieee80211Multicast(packetSentToPeer)
attr title "packets sent: multicast, vector(packetBytes)"
vector 148 RoutingScenario.node[2].wlan[0].mac.dcf packetSentToPeerBroadcast:vector(packetBytes) ETV
attr interpolationmode none
attr source ieee80211Broadcast(packetSentToPeer)
attr title "packets sent: broadcast , vector(packetBytes)"
vector 149 RoutingScenario.node[2].wlan[0].mac.dcf packetSentToPeerWithoutRetry:vector(packetBytes) ETV
attr interpolationmode none
attr source ieee80211NotRetry(packetSentToPeer)
attr title "packets sent: without retry, vector(packetBytes)"
vector 150 RoutingScenario.node[2].wlan[0].mac.dcf.channelAccess.inProgressFrames queueingTime:vector ETV
attr interpolationmode none
attr source queueingTime(packetDequeued)
attr title "queueing times, vector"
vector 151 RoutingScenario.node[8].wlan[0].mac packetReceivedFromUpper:vector(packetBytes) ETV
attr interpolationmode none
attr title "packets received from upper layer, vector(packetBytes)"
vector 152 RoutingScenario.node[8].wlan[0].mac.dcf.channelAccess.pendingQueue packetPushed:vector(packetBytes) ETV
attr interpolationmode none
attr title "packet pushed, vector(packetBytes)"
vector 153 RoutingScenario.node[8].wlan[0].mac.dcf.channelAccess.pendingQueue queueLength:vector ETV
attr interpolationmode sample-hold
attr source "count(packetPushed) - count(packetPopped) - count(packetRemoved) - count(packetDropped)"
attr title "queue length, vector"
vector 154 RoutingScenario.node[8].wlan[0].mac.dcf.channelAccess.contention backoffPeriodGenerated:vector ETV
attr interpolationmode none
attr title "backoff periods, vector"
vector 155 RoutingScenario.node[8].wlan[0].mac.dcf.channelAccess.contention backoffActive:vector ETV
attr interpolationmode sample-hold
attr source count(backoffStarted)-count(backoffStopped)
attr title "backoff active, vector"
vector 156 RoutingScenario.node[9].wlan[0].mac packetReceivedFromUpper:vector(packetBytes) ETV
attr interpolationmode none
attr title "packets received from upper layer, vector(packetBytes)"
vector 157 RoutingScenario.node[9].wlan[0].mac.dcf.channelAccess.pendingQueue packetPushed:vector(packetBytes) ETV
attr interpolationmode none
attr title "packet pushed, vector(packetBytes)"
vector 158 RoutingScenario.node[9].wlan[0].mac.dcf.channelAccess.pendingQueue queueLength:vector ETV
attr interpolationmode sample-hold
attr source "count(packetPushed) - count(packetPopped) - count(packetRemoved) - count(packetDropped)"
attr title "queue length, vector"
vector 159 RoutingScenario.node[9].wlan[0].mac.dcf.channelAccess.contention backoffPeriodGenerated:vector ETV
attr interpolationmode none
attr title "backoff periods, vector"
vector 160 RoutingScenario.node[9].wlan[0].mac.dcf.channelAccess.contention backoffActive:vector ETV
attr interpolationmode sample-hold
attr source count(backoffStarted)-count(backoffStopped)
attr title "backoff active, vector"
vector 161 RoutingScenario.node[9].wlan[0].mac.dcf.channelAccess.pendingQueue packetPopped:vector(packetBytes) ETV
attr interpolationmode none
attr title "packet popped, vector(packetBytes)"
vector 162 RoutingScenario.node[9].wlan[0].mac.dcf.channelAccess.pendingQueue queueingTime:vector ETV
attr interpolationmode none
attr source queueingTime(packetPopped)
attr title "queueing times, vector"
attr unit s
vector 163 RoutingScenario.node[9].wlan[0].mac.dcf.channelAccess.inProgressFrames queueLength:vector ETV
attr interpolationmode sample-hold
attr source "count(packetEnqueued) - count(packetDequeued)"
attr title "queue length, vector"
vector 164 RoutingScenario.node[9].wlan[0].mac.dcf datarateSelected:vector ETV
attr interpolationmode none
attr title "datarates selected, vector"
vector 165 RoutingScenario.node[9].wlan[0].mac packetSentToLower:vector(packetBytes) ETV
attr interpolationmode none
attr title "packets sent to lower layer, vector(packetBytes)"
vector 166 RoutingScenario.node[9].wlan[0].mac.dcf frameSequenceActive:vector ETV
attr interpolationmode sample-hold
attr source count(frameSequenceStarted)-count(frameSequenceFinished)
attr title "frame sequence active, vector"
vector 167 RoutingScenario.node[9].wlan[0].radio transmissionState:vector ETV
attr interpolationmode sample-hold
attr source transmissionStateChanged
attr title "Radio transmission state, vector"
vector 168 RoutingScenario.node[9].wlan[0].mac.dcf packetSentToPeer:vector(packetBytes) ETV
attr interpolationmode none
attr title "packets sent, vector(packetBytes)"
vector 169 RoutingScenario.node[9].wlan[0].mac.dcf packetSentToPeerMulticast:vector(packetBytes) ETV
attr interpolationmode none
attr source ieee80211Multicast(packetSentToPeer)
attr title "packets sent: multicast, vector(packetBytes)"
vector 170 RoutingScenario.node[9].wlan[0].mac.dcf packetSentToPeerBroadcast:vector(packetBytes) ETV
attr interpolationmode none
attr source ieee80211Broadcast(packetSentToPeer)
attr title "packets sent: broadcast , vector(packetBytes)"
vector 171 RoutingScenario.node[9].wlan[0].mac.dcf packetSentToPeerWithoutRetry:vector(packetBytes) ETV
attr interpolationmode none
attr source ieee80211NotRetry(packetSentToPeer)
attr title "packets sent: without retry, vector(packetBytes)"
vector 172 RoutingScenario.node[9].wlan[0].mac.dcf.channelAccess.inProgressFrames queueingTime:vector ETV
attr interpolationmode none
attr source queueingTime(packetDequeued)
attr title "queueing times, vector"
vector 173 RoutingScenario.node[6].wlan[0].mac packetReceivedFromLower:vector(packetBytes) ETV
attr interpolationmode none
attr title "packets received from lower layer, vector(packetBytes)"
vector 174 RoutingScenario.node[6].wlan[0].mac packetDrop:vector(packetBytes) ETV
attr interpolationmode none
attr source packetDropped
attr title "packet drops, vector(packetBytes)"
vector 175 RoutingScenario.node[6].wlan[0].mac packetDropIncorrectlyReceived:vector(packetBytes) ETV
attr interpolationmode none
attr source packetDropReasonIsIncorrectlyReceived(packetDropped)
attr title "packet drops: incorrectly received, vector(packetBytes)"
vector 176 RoutingScenario.node[6].wlan[0].mac packetReceivedFromUpper:vector(packetBytes) ETV
attr interpolationmode none
attr title "packets received from upper layer, vector(packetBytes)"
vector 177 RoutingScenario.node[6].wlan[0].mac.dcf.channelAccess.pendingQueue packetPushed:vector(packetBytes) ETV
attr interpolationmode none
attr title "packet pushed, vector(packetBytes)"
vector 178 RoutingScenario.node[6].wlan[0].mac.dcf.channelAccess.pendingQueue queueLength:vector ETV
attr interpolationmode sample-hold
attr source "count(packetPushed) - count(packetPopped) - count(packetRemoved) - count(packetDropped)"
attr title "queue length, vector"
vector 179 RoutingScenario.node[6].wlan[0].mac.dcf.channelAccess.contention backoffPeriodGenerated:vector ETV
attr interpolationmode none
attr title "backoff periods, vector"
vector 180 RoutingScenario.node[6].wlan[0].mac.dcf.channelAccess.contention backoffActive:vector ETV
attr interpolationmode sample-hold
attr source count(backoffStarted)-count(backoffStopped)
attr title "backoff active, vector"
vector 181 RoutingScenario.node[6].wlan[0].mac.dcf.channelAccess.pendingQueue packetPopped:vector(packetBytes) ETV
attr interpolationmode none
attr title "packet popped, vector(packetBytes)"
vector 182 RoutingScenario.node[6].wlan[0].mac.dcf.channelAccess.pendingQueue queueingTime:vector ETV
attr interpolationmode none
attr source queueingTime(packetPopped)
attr title "queueing times, vector"
attr unit s
vector 183 RoutingScenario.node[6].wlan[0].mac.dcf.channelAccess.inProgressFrames queueLength:vector ETV
attr interpolationmode sample-hold
attr source "count(packetEnqueued) - count(packetDequeued)"
attr title "queue length, vector"
vector 184 RoutingScenario.node[6].wlan[0].mac.dcf datarateSelected:vector ETV
attr interpolationmode none
attr title "datarates selected, vector"
vector 185 RoutingScenario.node[6].wlan[0].mac packetSentToLower:vector(packetBytes) ETV
attr interpolationmode none
attr title "packets sent to lower layer, vector(packetBytes)"
vector 186 RoutingScenario.node[6].wlan[0].mac.dcf frameSequenceActive:vector ETV
attr interpolationmode sample-hold
attr source count(frameSequenceStarted)-count(frameSequenceFinished)
attr title "frame sequence active, vector"
vector 187 RoutingScenario.node[6].wlan[0].radio transmissionState:vector ETV
attr interpolationmode sample-hold
attr source transmissionStateChanged
attr title "Radio transmission state, vector"
vector 188 RoutingScenario.node[6].wlan[0].mac.dcf packetSentToPeer:vector(packetBytes) ETV
attr interpolationmode none
attr title "packets sent, vector(packetBytes)"
vector 189 RoutingScenario.node[6].wlan[0].mac.dcf packetSentToPeerMulticast:vector(packetBytes) ETV
attr interpolationmode none
attr source ieee80211Multicast(packetSentToPeer)
attr title "packets sent: multicast, vector(packetBytes)"
vector 190 RoutingScenario.node[6].wlan[0].mac.dcf packetSentToPeerBroadcast:vector(packetBytes) ETV
attr interpolationmode none
attr source ieee80211Broadcast(packetSentToPeer)
attr title "packets sent: broadcast , vector(packetBytes)"
vector 191 RoutingScenario.node[6].wlan[0].mac.dcf packetSentToPeerWithoutRetry:vector(packetBytes) ETV
attr interpolationmode none
attr source ieee80211NotRetry(packetSentToPeer)
attr title "packets sent: without retry, vector(packetBytes)"
vector 192 RoutingScenario.node[6].wlan[0].mac.dcf.channelAccess.inProgressFrames queueingTime:vector ETV
attr interpolationmode none
attr source queueingTime(packetDequeued)
attr title "queueing times, vector"
vector 193 RoutingScenario.node[9].wlan[0].mac packetReceivedFromLower:vector(packetBytes) ETV
attr interpolationmode none
attr title "packets received from lower layer, vector(packetBytes)"
vector 194 RoutingScenario.node[9].wlan[0].mac packetDrop:vector(packetBytes) ETV
attr interpolationmode none
attr source packetDropped
attr title "packet drops, vector(packetBytes)"
vector 195 RoutingScenario.node[9].wlan[0].mac packetDropIncorrectlyReceived:vector(packetBytes) ETV
attr interpolationmode none
attr source packetDropReasonIsIncorrectlyReceived(packetDropped)
attr title "packet drops: incorrectly received, vector(packetBytes)"
vector 196 RoutingScenario.node[4].wlan[0].mac packetReceivedFromUpper:vector(packetBytes) ETV
attr interpolationmode none
attr title "packets received from upper layer, vector(packetBytes)"
vector 197 RoutingScenario.node[4].wlan[0].mac.dcf.channelAccess.pendingQueue packetPushed:vector(packetBytes) ETV
attr interpolationmode none
attr title "packet pushed, vector(packetBytes)"
vector 198 RoutingScenario.node[4].wlan[0].mac.dcf.channelAccess.pendingQueue queueLength:vector ETV
attr interpolationmode sample-hold
attr source "count(packetPushed) - count(packetPopped) - count(packetRemoved) - count(packetDropped)"
attr title "queue length, vector"
vector 199 RoutingScenario.node[4].wlan[0].mac.dcf.channelAccess.contention backoffPeriodGenerated:vector ETV
attr interpolationmode none
attr title "backoff periods, vector"
vector 200 RoutingScenario.node[4].wlan[0].mac.dcf.channelAccess.contention backoffActive:vector ETV
attr interpolationmode sample-hold
attr source count(backoffStarted)-count(backoffStopped)
attr title "backoff active, vector"
vector 201 RoutingScenario.node[4].wlan[0].mac.dcf.channelAccess.pendingQueue packetPopped:vector(packetBytes) ETV
attr interpolationmode none
attr title "packet popped, vector(packetBytes)"
vector 202 RoutingScenario.node[4].wlan[0].mac.dcf.channelAccess.pendingQueue queueingTime:vector ETV
attr interpolationmode none
attr source queueingTime(packetPopped)
attr title "queueing times, vector"
attr unit s
vector 203 RoutingScenario.node[4].wlan[0].mac.dcf.channelAccess.inProgressFrames queueLength:vector ETV
attr interpolationmode sample-hold
attr source "count(packetEnqueued) - count(packetDequeued)"
attr title "queue length, vector"
vector 204 RoutingScenario.node[4].wlan[0].mac.dcf datarateSelected:vector ETV
attr interpolationmode none
attr title "datarates selected, vector"
vector 205 RoutingScenario.node[4].wlan[0].mac packetSentToLower:vector(packetBytes) ETV
attr interpolationmode none
attr title "packets sent to lower layer, vector(packetBytes)"
vector 206 RoutingScenario.node[4].wlan[0].mac.dcf frameSequenceActive:vector ETV
attr interpolationmode sample-hold
attr source count(frameSequenceStarted)-count(frameSequenceFinished)
attr title "frame sequence active, vector"
vector 207 RoutingScenario.node[4].wlan[0].radio transmissionState:vector ETV
attr interpolationmode sample-hold
attr source transmissionStateChanged
attr title "Radio transmission state, vector"
vector 208 RoutingScenario.node[8].wlan[0].mac.dcf.channelAccess.pendingQueue packetPopped:vector(packetBytes) ETV
attr interpolationmode none
attr title "packet popped, vector(packetBytes)"
vector 209 RoutingScenario.node[8].wlan[0].mac.dcf.channelAccess.pendingQueue queueingTime:vector ETV
attr interpolationmode none
attr source queueingTime(packetPopped)
attr title "queueing times, vector"
attr unit s
vector 210 RoutingScenario.node[8].wlan[0].mac.dcf.channelAccess.inProgressFrames queueLength:vector ETV
attr interpolationmode sample-hold
attr source "count(packetEnqueued) - count(packetDequeued)"
attr title "queue length, vector"
vector 211 RoutingScenario.node[8].wlan[0].mac.dcf datarateSelected:vector ETV
attr interpolationmode none
attr title "datarates selected, vector"
vector 212 RoutingScenario.node[8].wlan[0].mac packetSentToLower:vector(packetBytes) ETV
attr interpolationmode none
attr title "packets sent to lower layer, vector(packetBytes)"
vector 213 RoutingScenario.node[8].wlan[0].mac.dcf frameSequenceActive:vector ETV
attr interpolationmode sample-hold
attr source count(frameSequenceStarted)-count(frameSequenceFinished)
attr title "frame sequence active, vector"
vector 214 RoutingScenario.node[8].wlan[0].radio transmissionState:vector ETV
attr interpolationmode sample-hold
attr source transmissionStateChanged
attr title "Radio transmission state, vector"
vector 215 RoutingScenario.node[1].wlan[0].mac packetReceivedFromUpper:vector(packetBytes) ETV
attr interpolationmode none
attr title "packets received from upper layer, vector(packetBytes)"
vector 216 RoutingScenario.node[1].wlan[0].mac.dcf.channelAccess.pendingQueue packetPushed:vector(packetBytes) ETV
attr interpolationmode none
attr title "packet pushed, vector(packetBytes)"
vector 217 RoutingScenario.node[1].wlan[0].mac.dcf.channelAccess.pendingQueue queueLength:vector ETV
attr interpolationmode sample-hold
attr source "count(packetPushed) - count(packetPopped) - count(packetRemoved) - count(packetDropped)"
attr title "queue length, vector"
vector 218 RoutingScenario.node[1].wlan[0].mac.dcf.channelAccess.contention backoffPeriodGenerated:vector ETV
attr interpolationmode none
attr title "backoff periods, vector"
vector 219 RoutingScenario.node[4].wlan[0].mac.dcf packetSentToPeer:vector(packetBytes) ETV
attr interpolationmode none
attr title "packets sent, vector(packetBytes)"
vector 220 RoutingScenario.node[4].wlan[0].mac.dcf packetSentToPeerMulticast:vector(packetBytes) ETV
attr interpolationmode none
attr source ieee80211Multicast(packetSentToPeer)
attr title "packets sent: multicast, vector(packetBytes)"
vector 221 RoutingScenario.node[4].wlan[0].mac.dcf packetSentToPeerBroadcast:vector(packetBytes) ETV
attr interpolationmode none
attr source ieee80211Broadcast(packetSentToPeer)
attr title "packets sent: broadcast , vector(packetBytes)"
vector 222 RoutingScenario.node[4].wlan[0].mac.dcf packetSentToPeerWithoutRetry:vector(packetBytes) ETV
attr interpolationmode none
attr source ieee80211NotRetry(packetSentToPeer)
attr title "packets sent: without retry, vector(packetBytes)"
vector 223 RoutingScenario.node[4].wlan[0].mac.dcf.channelAccess.inProgressFrames queueingTime:vector ETV
attr interpolationmode none
attr source queueingTime(packetDequeued)
attr title "queueing times, vector"
vector 224 RoutingScenario.node[1].wlan[0].mac.dcf.channelAccess.contention backoffActive:vector ETV
attr interpolationmode sample-hold
attr source count(backoffStarted)-count(backoffStopped)
attr title "backoff active, vector"
vector 225 RoutingScenario.node[8].wlan[0].mac.dcf packetSentToPeer:vector(packetBytes) ETV
attr interpolationmode none
attr title "packets sent, vector(packetBytes)"
vector 226 RoutingScenario.node[8].wlan[0].mac.dcf packetSentToPeerMulticast:vector(packetBytes) ETV
attr interpolationmode none
attr source ieee80211Multicast(packetSentToPeer)
attr title "packets sent: multicast, vector(packetBytes)"
vector 227 RoutingScenario.node[8].wlan[0].mac.dcf packetSentToPeerBroadcast:vector(packetBytes) ETV
attr interpolationmode none
attr source ieee80211Broadcast(packetSentToPeer)
attr title "packets sent: broadcast , vector(packetBytes)"
vector 228 RoutingScenario.node[8].wlan[0].mac.dcf packetSentToPeerWithoutRetry:vector(packetBytes) ETV
attr interpolationmode none
attr source ieee80211NotRetry(packetSentToPeer)
attr title "packets sent: without retry, vector(packetBytes)"
vector 229 RoutingScenario.node[8].wlan[0].mac.dcf.channelAccess.inProgressFrames queueingTime:vector ETV
attr interpolationmode none
attr source queueingTime(packetDequeued)
attr title "queueing times, vector"
vector 230 RoutingScenario.node[10].wlan[0].mac packetReceivedFromLower:vector(packetBytes) ETV
attr interpolationmode none
attr title "packets received from lower layer, vector(packetBytes)"
vector 231 RoutingScenario.node[10].wlan[0].mac.dcf packetReceivedFromPeer:vector(packetBytes) ETV
attr interpolationmode none
attr title "packets received, vector(packetBytes)"
vector 232 RoutingScenario.node[10].wlan[0].mac.dcf packetReceivedFromPeerMulticast:vector(packetBytes) ETV
attr interpolationmode none
attr source ieee80211Multicast(packetReceivedFromPeer)
attr title "packets received: multicast, vector(packetBytes)"
vector 233 RoutingScenario.node[10].wlan[0].mac.dcf packetReceivedFromPeerBroadcast:vector(packetBytes) ETV
attr interpolationmode none
attr source ieee80211Broadcast(packetReceivedFromPeer)
attr title "packets received: broadcast, vector(packetBytes)"
vector 234 RoutingScenario.node[10].wlan[0].mac.dcf packetReceivedFromPeerWithoutRetry:vector(packetBytes) ETV
attr interpolationmode none
attr source ieee80211NotRetry(packetReceivedFromPeer)
attr title "packets received: without retry, vector(packetBytes)"
vector 235 RoutingScenario.node[10].wlan[0].mac packetSentToUpper:vector(packetBytes) ETV
attr interpolationmode none
attr title "packets sent to upper layer, vector(packetBytes)"
vector 236 RoutingScenario.node[10].udp packetReceived:vector(packetBytes) ETV
attr interpolationmode none
attr source packetReceived
attr title "packets received, vector(packetBytes)"
vector 237 RoutingScenario.node[10].udp passedUpPk:vector(count) ETV
attr interpolationmode none
attr source packetSentToUpper
attr title "packets passed up, vector(count)"
vector 238 RoutingScenario.node[5].wlan[0].mac packetReceivedFromLower:vector(packetBytes) ETV
attr interpolationmode none
attr title "packets received from lower layer, vector(packetBytes)"
vector 239 RoutingScenario.node[5].wlan[0].mac packetDropIncorrectlyReceived:vector(packetBytes) ETV
attr interpolationmode none
attr source packetDropReasonIsIncorrectlyReceived(packetDropped)
attr title "packet drops: incorrectly received, vector(packetBytes)"
vector 240 RoutingScenario.node[3].wlan[0].mac packetReceivedFromUpper:vector(packetBytes) ETV
attr interpolationmode none
attr title "packets received from upper layer, vector(packetBytes)"
vector 241 RoutingScenario.node[3].wlan[0].mac.dcf.channelAccess.pendingQueue packetPushed:vector(packetBytes) ETV
attr interpolationmode none
attr title "packet pushed, vector(packetBytes)"
vector 242 RoutingScenario.node[3].wlan[0].mac.dcf.channelAccess.pendingQueue queueLength:vector ETV
attr interpolationmode sample-hold
attr source "count(packetPushed) - count(packetPopped) - count(packetRemoved) - count(packetDropped)"
attr title "queue length, vector"
vector 243 RoutingScenario.node[3].wlan[0].mac.dcf.channelAccess.contention backoffPeriodGenerated:vector ETV
attr interpolationmode none
attr title "backoff periods, vector"
vector 244 RoutingScenario.node[3].wlan[0].mac.dcf.channelAccess.contention backoffActive:vector ETV
attr interpolationmode sample-hold
attr source count(backoffStarted)-count(backoffStopped)
attr title "backoff active, vector"
vector 245 RoutingScenario.node[3].wlan[0].mac.dcf.channelAccess.pendingQueue packetPopped:vector(packetBytes) ETV
attr interpolationmode none
attr title "packet popped, vector(packetBytes)"
vector 246 RoutingScenario.node[3].wlan[0].mac.dcf.channelAccess.pendingQueue queueingTime:vector ETV
attr interpolationmode none
attr source queueingTime(packetPopped)
attr title "queueing times, vector"
attr unit s
vector 247 RoutingScenario.node[3].wlan[0].mac.dcf.channelAccess.inProgressFrames queueLength:vector ETV
attr interpolationmode sample-hold
attr source "count(packetEnqueued) - count(packetDequeued)"
attr title "queue length, vector"
vector 248 RoutingScenario.node[3].wlan[0].mac.dcf datarateSelected:vector ETV
attr interpolationmode none
attr title "datarates selected, vector"
vector 249 RoutingScenario.node[3].wlan[0].mac packetSentToLower:vector(packetBytes) ETV
attr interpolationmode none
attr title "packets sent to lower layer, vector(packetBytes)"
vector 250 RoutingScenario.node[3].wlan[0].mac.dcf frameSequenceActive:vector ETV
attr interpolationmode sample-hold
attr source count(frameSequenceStarted)-count(frameSequenceFinished)
attr title "frame sequence active, vector"
vector 251 RoutingScenario.node[3].wlan[0].radio transmissionState:vector ETV
attr interpolationmode sample-hold
attr source transmissionStateChanged
attr title "Radio transmission state, vector"
vector 252 RoutingScenario.node[1].wlan[0].mac.dcf.channelAccess.pendingQueue packetPopped:vector(packetBytes) ETV
attr interpolationmode none
attr title "packet popped, vector(packetBytes)"
vector 253 RoutingScenario.node[1].wlan[0].mac.dcf.channelAccess.pendingQueue queueingTime:vector ETV
attr interpolationmode none
attr source queueingTime(packetPopped)
attr title "queueing times, vector"
attr unit s
vector 254 RoutingScenario.node[1].wlan[0].mac.dcf.channelAccess.inProgressFrames queueLength:vector ETV
attr interpolationmode sample-hold
attr source "count(packetEnqueued) - count(packetDequeued)"
attr title "queue length, vector"
vector 255 RoutingScenario.node[1].wlan[0].mac.dcf datarateSelected:vector ETV
attr interpolationmode none
attr title "datarates selected, vector"
vector 256 RoutingScenario.node[1].wlan[0].mac packetSentToLower:vector(packetBytes) ETV
attr interpolationmode none
attr title "packets sent to lower layer, vector(packetBytes)"
vector 257 RoutingScenario.node[1].wlan[0].mac.dcf frameSequenceActive:vector ETV
attr interpolationmode sample-hold
attr source count(frameSequenceStarted)-count(frameSequenceFinished)
attr title "frame sequence active, vector"
vector 258 RoutingScenario.node[1].wlan[0].radio transmissionState:vector ETV
attr interpolationmode sample-hold
attr source transmissionStateChanged
attr title "Radio transmission state, vector"
vector 259 RoutingScenario.node[3].wlan[0].mac.dcf packetSentToPeer:vector(packetBytes) ETV
attr interpolationmode none
attr title "packets sent, vector(packetBytes)"
vector 260 RoutingScenario.node[3].wlan[0].mac.dcf packetSentToPeerMulticast:vector(packetBytes) ETV
attr interpolationmode none
attr source ieee80211Multicast(packetSentToPeer)
attr title "packets sent: multicast, vector(packetBytes)"
vector 261 RoutingScenario.node[3].wlan[0].mac.dcf packetSentToPeerBroadcast:vector(packetBytes) ETV
attr interpolationmode none
attr source ieee80211Broadcast(packetSentToPeer)
attr title "packets sent: broadcast , vector(packetBytes)"
vector 262 RoutingScenario.node[3].wlan[0].mac.dcf packetSentToPeerWithoutRetry:vector(packetBytes) ETV
attr interpolationmode none
attr source ieee80211NotRetry(packetSentToPeer)
attr title "packets sent: without retry, vector(packetBytes)"
vector 263 RoutingScenario.node[3].wlan[0].mac.dcf.channelAccess.inProgressFrames queueingTime:vector ETV
attr interpolationmode none
attr source queueingTime(packetDequeued)
attr title "queueing times, vector"
vector 264 RoutingScenario.node[0].wlan[0].mac packetReceivedFromLower:vector(packetBytes) ETV
attr interpolationmode none
attr title "packets received from lower layer, vector(packetBytes)"
vector 265 RoutingScenario.node[0].wlan[0].mac.dcf packetReceivedFromPeer:vector(packetBytes) ETV
attr interpolationmode none
attr title "packets received, vector(packetBytes)"
vector 266 RoutingScenario.node[0].wlan[0].mac.dcf packetReceivedFromPeerMulticast:vector(packetBytes) ETV
attr interpolationmode none
attr source ieee80211Multicast(packetReceivedFromPeer)
attr title "packets received: multicast, vector(packetBytes)"
vector 267 RoutingScenario.node[0].wlan[0].mac.dcf packetReceivedFromPeerBroadcast:vector(packetBytes) ETV
attr interpolationmode none
attr source ieee80211Broadcast(packetReceivedFromPeer)
attr title "packets received: broadcast, vector(packetBytes)"
vector 268 RoutingScenario.node[0].wlan[0].mac.dcf packetReceivedFromPeerWithoutRetry:vector(packetBytes) ETV
attr interpolationmode none
attr source ieee80211NotRetry(packetReceivedFromPeer)
attr title "packets received: without retry, vector(packetBytes)"
vector 269 RoutingScenario.node[0].wlan[0].mac packetSentToUpper:vector(packetBytes) ETV
attr interpolationmode none
attr title "packets sent to upper layer, vector(packetBytes)"
vector 270 RoutingScenario.node[0].udp passedUpPk:vector(count) ETV
attr interpolationmode none
attr source packetSentToUpper
attr title "packets passed up, vector(count)"
vector 271 RoutingScenario.node[0].ipv4.arp arpRequestSent:vector(packetBytes) ETV
attr source arpRequestSent
attr title "ARP request sent, vector(packetBytes)"
vector 272 RoutingScenario.node[0].wlan[0].mac packetReceivedFromUpper:vector(packetBytes) ETV
attr interpolationmode none
attr title "packets received from upper layer, vector(packetBytes)"
vector 273 RoutingScenario.node[0].wlan[0].mac.dcf.channelAccess.pendingQueue packetPushed:vector(packetBytes) ETV
attr interpolationmode none
attr title "packet pushed, vector(packetBytes)"
vector 274 RoutingScenario.node[0].wlan[0].mac.dcf.channelAccess.pendingQueue queueLength:vector ETV
attr interpolationmode sample-hold
attr source "count(packetPushed) - count(packetPopped) - count(packetRemoved) - count(packetDropped)"
attr title "queue length, vector"
vector 275 RoutingScenario.node[0].wlan[0].mac.dcf.channelAccess.contention backoffPeriodGenerated:vector ETV
attr interpolationmode none
attr title "backoff periods, vector"
vector 276 RoutingScenario.node[0].wlan[0].mac.dcf.channelAccess.contention backoffActive:vector ETV
attr interpolationmode sample-hold
attr source count(backoffStarted)-count(backoffStopped)
attr title "backoff active, vector"
vector 277 RoutingScenario.node[1].wlan[0].mac.dcf packetSentToPeer:vector(packetBytes) ETV
attr interpolationmode none
attr title "packets sent, vector(packetBytes)"
vector 278 RoutingScenario.node[1].wlan[0].mac.dcf packetSentToPeerMulticast:vector(packetBytes) ETV
attr interpolationmode none
attr source ieee80211Multicast(packetSentToPeer)
attr title "packets sent: multicast, vector(packetBytes)"
vector 279 RoutingScenario.node[1].wlan[0].mac.dcf packetSentToPeerBroadcast:vector(packetBytes) ETV
attr interpolationmode none
attr source ieee80211Broadcast(packetSentToPeer)
attr title "packets sent: broadcast , vector(packetBytes)"
vector 280 RoutingScenario.node[1].wlan[0].mac.dcf packetSentToPeerWithoutRetry:vector(packetBytes) ETV
attr interpolationmode none
attr source ieee80211NotRetry(packetSentToPeer)
attr title "packets sent: without retry, vector(packetBytes)"
vector 281 RoutingScenario.node[1].wlan[0].mac.dcf.channelAccess.inProgressFrames queueingTime:vector ETV
attr interpolationmode none
attr source queueingTime(packetDequeued)
attr title "queueing times, vector"
vector 282 RoutingScenario.node[4].wlan[0].mac packetReceivedFromLower:vector(packetBytes) ETV
attr interpolationmode none
attr title "packets received from lower layer, vector(packetBytes)"
vector 283 RoutingScenario.node[4].wlan[0].mac.dcf packetReceivedFromPeer:vector(packetBytes) ETV
attr interpolationmode none
attr title "packets received, vector(packetBytes)"
vector 284 RoutingScenario.node[4].wlan[0].mac.dcf packetReceivedFromPeerMulticast:vector(packetBytes) ETV
attr interpolationmode none
attr source ieee80211Multicast(packetReceivedFromPeer)
attr title "packets received: multicast, vector(packetBytes)"
vector 285 RoutingScenario.node[4].wlan[0].mac.dcf packetReceivedFromPeerBroadcast:vector(packetBytes) ETV
attr interpolationmode none
attr source ieee80211Broadcast(packetReceivedFromPeer)
attr title "packets received: broadcast, vector(packetBytes)"
vector 286 RoutingScenario.node[4].wlan[0].mac.dcf packetReceivedFromPeerWithoutRetry:vector(packetBytes) ETV
attr interpolationmode none
attr source ieee80211NotRetry(packetReceivedFromPeer)
attr title "packets received: without retry, vector(packetBytes)"
vector 287 RoutingScenario.node[4].wlan[0].mac packetSentToUpper:vector(packetBytes) ETV
attr interpolationmode none
attr title "packets sent to upper layer, vector(packetBytes)"
vector 288 RoutingScenario.node[4].udp packetReceived:vector(packetBytes) ETV
attr interpolationmode none
attr source packetReceived
attr title "packets received, vector(packetBytes)"
vector 289 RoutingScenario.node[4].udp passedUpPk:vector(count) ETV
attr interpolationmode none
attr source packetSentToUpper
attr title "packets passed up, vector(count)"
vector 290 RoutingScenario.node[5].wlan[0].mac.dcf packetReceivedFromPeer:vector(packetBytes) ETV
attr interpolationmode none
attr title "packets received, vector(packetBytes)"
vector 291 RoutingScenario.node[5].wlan[0].mac.dcf packetReceivedFromPeerMulticast:vector(packetBytes) ETV
attr interpolationmode none
attr source ieee80211Multicast(packetReceivedFromPeer)
attr title "packets received: multicast, vector(packetBytes)"
vector 292 RoutingScenario.node[5].wlan[0].mac.dcf packetReceivedFromPeerBroadcast:vector(packetBytes) ETV
attr interpolationmode none
attr source ieee80211Broadcast(packetReceivedFromPeer)
attr title "packets received: broadcast, vector(packetBytes)"
vector 293 RoutingScenario.node[5].wlan[0].mac.dcf packetReceivedFromPeerWithoutRetry:vector(packetBytes) ETV
attr interpolationmode none
attr source ieee80211NotRetry(packetReceivedFromPeer)
attr title "packets received: without retry, vector(packetBytes)"
vector 294 RoutingScenario.node[5].wlan[0].mac packetSentToUpper:vector(packetBytes) ETV
attr interpolationmode none
attr title "packets sent to upper layer, vector(packetBytes)"
vector 295 RoutingScenario.node[5].udp packetReceived:vector(packetBytes) ETV
attr interpolationmode none
attr source packetReceived
attr title "packets received, vector(packetBytes)"
vector 296 RoutingScenario.node[5].udp passedUpPk:vector(count) ETV
attr interpolationmode none
attr source packetSentToUpper
attr title "packets passed up, vector(count)"
vector 297 RoutingScenario.node[0].wlan[0].mac.dcf.channelAccess.pendingQueue packetPopped:vector(packetBytes) ETV
attr interpolationmode none
attr title "packet popped, vector(packetBytes)"
vector 298 RoutingScenario.node[0].wlan[0].mac.dcf.channelAccess.pendingQueue queueingTime:vector ETV
attr interpolationmode none
attr source queueingTime(packetPopped)
attr title "queueing times, vector"
attr unit s
vector 299 RoutingScenario.node[0].wlan[0].mac.dcf.channelAccess.inProgressFrames queueLength:vector ETV
attr interpolationmode sample-hold
attr source "count(packetEnqueued) - count(packetDequeued)"
attr title "queue length, vector"
vector 300 RoutingScenario.node[0].wlan[0].mac.dcf datarateSelected:vector ETV
attr interpolationmode none
attr title "datarates selected, vector"
vector 301 RoutingScenario.node[0].wlan[0].mac packetSentToLower:vector(packetBytes) ETV
attr interpolationmode none
attr title "packets sent to lower layer, vector(packetBytes)"
vector 302 RoutingScenario.node[0].wlan[0].mac.dcf frameSequenceActive:vector ETV
attr interpolationmode sample-hold
attr source count(frameSequenceStarted)-count(frameSequenceFinished)
attr title "frame sequence active, vector"
vector 303 RoutingScenario.node[0].wlan[0].radio transmissionState:vector ETV
attr interpolationmode sample-hold
attr source transmissionStateChanged
attr title "Radio transmission state, vector"
vector 304 RoutingScenario.node[0].wlan[0].mac.dcf packetSentToPeer:vector(packetBytes) ETV
attr interpolationmode none
attr title "packets sent, vector(packetBytes)"
vector 305 RoutingScenario.node[0].wlan[0].mac.dcf packetSentToPeerMulticast:vector(packetBytes) ETV
attr interpolationmode none
attr source ieee80211Multicast(packetSentToPeer)
attr title "packets sent: multicast, vector(packetBytes)"
vector 306 RoutingScenario.node[0].wlan[0].mac.dcf packetSentToPeerBroadcast:vector(packetBytes) ETV
attr interpolationmode none
attr source ieee80211Broadcast(packetSentToPeer)
attr title "packets sent: broadcast , vector(packetBytes)"
vector 307 RoutingScenario.node[0].wlan[0].mac.dcf packetSentToPeerWithoutRetry:vector(packetBytes) ETV
attr interpolationmode none
attr source ieee80211NotRetry(packetSentToPeer)
attr title "packets sent: without retry, vector(packetBytes)"
vector 308 RoutingScenario.node[0].wlan[0].mac.dcf.channelAccess.inProgressFrames queueingTime:vector ETV
attr interpolationmode none
attr source queueingTime(packetDequeued)
attr title "queueing times, vector"
vector 309 RoutingScenario.node[3].wlan[0].mac packetReceivedFromLower:vector(packetBytes) ETV
attr interpolationmode none
attr title "packets received from lower layer, vector(packetBytes)"
vector 310 RoutingScenario.node[3].wlan[0].mac packetDrop:vector(packetBytes) ETV
attr interpolationmode none
attr source packetDropped
attr title "packet drops, vector(packetBytes)"
vector 311 RoutingScenario.node[3].wlan[0].mac packetDropIncorrectlyReceived:vector(packetBytes) ETV
attr interpolationmode none
attr source packetDropReasonIsIncorrectlyReceived(packetDropped)
attr title "packet drops: incorrectly received, vector(packetBytes)"
vector 312 RoutingScenario.node[10].wlan[0].mac packetReceivedFromUpper:vector(packetBytes) ETV
attr interpolationmode none
attr title "packets received from upper layer, vector(packetBytes)"
vector 313 RoutingScenario.node[10].wlan[0].mac.dcf.channelAccess.pendingQueue packetPushed:vector(packetBytes) ETV
attr interpolationmode none
attr title "packet pushed, vector(packetBytes)"
vector 314 RoutingScenario.node[10].wlan[0].mac.dcf.channelAccess.pendingQueue queueLength:vector ETV
attr interpolationmode sample-hold
attr source "count(packetPushed) - count(packetPopped) - count(packetRemoved) - count(packetDropped)"
attr title "queue length, vector"
vector 315 RoutingScenario.node[10].wlan[0].mac.dcf.channelAccess.contention backoffPeriodGenerated:vector ETV
attr interpolationmode none
attr title "backoff periods, vector"
vector 316 RoutingScenario.node[10].wlan[0].mac.dcf.channelAccess.contention backoffActive:vector ETV
attr interpolationmode sample-hold
attr source count(backoffStarted)-count(backoffStopped)
attr title "backoff active, vector"
vector 317 RoutingScenario.node[10].wlan[0].mac.dcf.channelAccess.pendingQueue packetPopped:vector(packetBytes) ETV
attr interpolationmode none
attr title "packet popped, vector(packetBytes)"
vector 318 RoutingScenario.node[10].wlan[0].mac.dcf.channelAccess.pendingQueue queueingTime:vector ETV
attr interpolationmode none
attr source queueingTime(packetPopped)
attr title "queueing times, vector"
attr unit s
vector 319 RoutingScenario.node[10].wlan[0].mac.dcf.channelAccess.inProgressFrames queueLength:vector ETV
attr interpolationmode sample-hold
attr source "count(packetEnqueued) - count(packetDequeued)"
attr title "queue length, vector"
vector 320 RoutingScenario.node[10].wlan[0].mac.dcf datarateSelected:vector ETV
attr interpolationmode none
attr title "datarates selected, vector"
vector 321 RoutingScenario.node[10].wlan[0].mac packetSentToLower:vector(packetBytes) ETV
attr interpolationmode none
attr title "packets sent to lower layer, vector(packetBytes)"
vector 322 RoutingScenario.node[10].wlan[0].mac.dcf frameSequenceActive:vector ETV
attr interpolationmode sample-hold
attr source count(frameSequenceStarted)-count(frameSequenceFinished)
attr title "frame sequence active, vector"
vector 323 RoutingScenario.node[10].wlan[0].radio transmissionState:vector ETV
attr interpolationmode sample-hold
attr source transmissionStateChanged
attr title "Radio transmission state, vector"
vector 324 RoutingScenario.node[10].wlan[0].mac.dcf packetSentToPeer:vector(packetBytes) ETV
attr interpolationmode none
attr title "packets sent, vector(packetBytes)"
vector 325 RoutingScenario.node[10].wlan[0].mac.dcf packetSentToPeerMulticast:vector(packetBytes) ETV
attr interpolationmode none
attr source ieee80211Multicast(packetSentToPeer)
attr title "packets sent: multicast, vector(packetBytes)"
vector 326 RoutingScenario.node[10].wlan[0].mac.dcf packetSentToPeerBroadcast:vector(packetBytes) ETV
attr interpolationmode none
attr source ieee80211Broadcast(packetSentToPeer)
attr title "packets sent: broadcast , vector(packetBytes)"
vector 327 RoutingScenario.node[10].wlan[0].mac.dcf packetSentToPeerWithoutRetry:vector(packetBytes) ETV
attr interpolationmode none
attr source ieee80211NotRetry(packetSentToPeer)
attr title "packets sent: without retry, vector(packetBytes)"
vector 328 RoutingScenario.node[10].wlan[0].mac.dcf.channelAccess.inProgressFrames queueingTime:vector ETV
attr interpolationmode none
attr source queueingTime(packetDequeued)
attr title "queueing times, vector"
vector 329 RoutingScenario.node[11].wlan[0].radio radioMode:vector ETV
attr interpolationmode sample-hold
attr source radioModeChanged
attr title "Radio mode, vector"
vector 330 RoutingScenario.node[11].wlan[0].radio radioChannel:vector ETV
attr interpolationmode sample-hold
attr source radioChannelChanged
attr title "Radio channel, vector"
vector 331 RoutingScenario.node[11].wlan[0].radio receptionState:vector ETV
attr interpolationmode sample-hold
attr source receptionStateChanged
attr title "Radio reception state, vector"
vector 332 RoutingScenario.node[11].wlan[0].mac.dcf.recoveryProcedure contentionWindowChanged:vector ETV
attr interpolationmode sample-hold
attr title "contention window, vector"
vector 333 RoutingScenario.node[12].wlan[0].radio radioMode:vector ETV
attr interpolationmode sample-hold
attr source radioModeChanged
attr title "Radio mode, vector"
vector 334 RoutingScenario.node[12].wlan[0].radio radioChannel:vector ETV
attr interpolationmode sample-hold
attr source radioChannelChanged
attr title "Radio channel, vector"
vector 335 RoutingScenario.node[12].wlan[0].radio receptionState:vector ETV
attr interpolationmode sample-hold
attr source receptionStateChanged
attr title "Radio reception state, vector"
vector 336 RoutingScenario.node[12].wlan[0].mac.dcf.recoveryProcedure contentionWindowChanged:vector ETV
attr interpolationmode sample-hold
attr title "contention window, vector"
vector 337 RoutingScenario.node[13].wlan[0].radio radioMode:vector ETV
attr interpolationmode sample-hold
attr source radioModeChanged
attr title "Radio mode, vector"
vector 338 RoutingScenario.node[13].wlan[0].radio radioChannel:vector ETV
attr interpolationmode sample-hold
attr source radioChannelChanged
attr title "Radio channel, vector"
vector 339 RoutingScenario.node[13].wlan[0].radio receptionState:vector ETV
attr interpolationmode sample-hold
attr source receptionStateChanged
attr title "Radio reception state, vector"
vector 340 RoutingScenario.node[13].wlan[0].mac.dcf.recoveryProcedure contentionWindowChanged:vector ETV
attr interpolationmode sample-hold
attr title "contention window, vector"
vector 341 RoutingScenario.node[14].wlan[0].radio radioMode:vector ETV
attr interpolationmode sample-hold
attr source radioModeChanged
attr title "Radio mode, vector"
vector 342 RoutingScenario.node[14].wlan[0].radio radioChannel:vector ETV
attr interpolationmode sample-hold
attr source radioChannelChanged
attr title "Radio channel, vector"
vector 343 RoutingScenario.node[14].wlan[0].radio receptionState:vector ETV
attr interpolationmode sample-hold
attr source receptionStateChanged
attr title "Radio reception state, vector"
vector 344 RoutingScenario.node[14].wlan[0].mac.dcf.recoveryProcedure contentionWindowChanged:vector ETV
attr interpolationmode sample-hold
attr title "contention window, vector"
vector 345 RoutingScenario.node[15].wlan[0].radio radioMode:vector ETV
attr interpolationmode sample-hold
attr source radioModeChanged
attr title "Radio mode, vector"
vector 346 RoutingScenario.node[15].wlan[0].radio radioChannel:vector ETV
attr interpolationmode sample-hold
attr source radioChannelChanged
attr title "Radio channel, vector"
vector 347 RoutingScenario.node[15].wlan[0].radio receptionState:vector ETV
attr interpolationmode sample-hold
attr source receptionStateChanged
attr title "Radio reception state, vector"
vector 348 RoutingScenario.node[15].wlan[0].mac.dcf.recoveryProcedure contentionWindowChanged:vector ETV
attr interpolationmode sample-hold
attr title "contention window, vector"
vector 349 RoutingScenario.node[16].wlan[0].radio radioMode:vector ETV
attr interpolationmode sample-hold
attr source radioModeChanged
attr title "Radio mode, vector"
vector 350 RoutingScenario.node[16].wlan[0].radio radioChannel:vector ETV
attr interpolationmode sample-hold
attr source radioChannelChanged
attr title "Radio channel, vector"
vector 351 RoutingScenario.node[16].wlan[0].radio receptionState:vector ETV
attr interpolationmode sample-hold
attr source receptionStateChanged
attr title "Radio reception state, vector"
vector 352 RoutingScenario.node[16].wlan[0].mac.dcf.recoveryProcedure contentionWindowChanged:vector ETV
attr interpolationmode sample-hold
attr title "contention window, vector"
vector 353 RoutingScenario.node[17].wlan[0].radio radioMode:vector ETV
attr interpolationmode sample-hold
attr source radioModeChanged
attr title "Radio mode, vector"
vector 354 RoutingScenario.node[17].wlan[0].radio radioChannel:vector ETV
attr interpolationmode sample-hold
attr source radioChannelChanged
attr title "Radio channel, vector"
vector 355 RoutingScenario.node[17].wlan[0].radio receptionState:vector ETV
attr interpolationmode sample-hold
attr source receptionStateChanged
attr title "Radio reception state, vector"
vector 356 RoutingScenario.node[17].wlan[0].mac.dcf.recoveryProcedure contentionWindowChanged:vector ETV
attr interpolationmode sample-hold
attr title "contention window, vector"
vector 357 RoutingScenario.node[18].wlan[0].radio radioMode:vector ETV
attr interpolationmode sample-hold
attr source radioModeChanged
attr title "Radio mode, vector"
vector 358 RoutingScenario.node[18].wlan[0].radio radioChannel:vector ETV
attr interpolationmode sample-hold
attr source radioChannelChanged
attr title "Radio channel, vector"
vector 359 RoutingScenario.node[18].wlan[0].radio receptionState:vector ETV
attr interpolationmode sample-hold
attr source receptionStateChanged
attr title "Radio reception state, vector"
vector 360 RoutingScenario.node[18].wlan[0].mac.dcf.recoveryProcedure contentionWindowChanged:vector ETV
attr interpolationmode sample-hold
attr title "contention window, vector"
vector 361 RoutingScenario.node[19].wlan[0].radio radioMode:vector ETV
attr interpolationmode sample-hold
attr source radioModeChanged
attr title "Radio mode, vector"
vector 362 RoutingScenario.node[19].wlan[0].radio radioChannel:vector ETV
attr interpolationmode sample-hold
attr source radioChannelChanged
attr title "Radio channel, vector"
vector 363 RoutingScenario.node[19].wlan[0].radio receptionState:vector ETV
attr interpolationmode sample-hold
attr source receptionStateChanged
attr title "Radio reception state, vector"
vector 364 RoutingScenario.node[19].wlan[0].mac.dcf.recoveryProcedure contentionWindowChanged:vector ETV
attr interpolationmode sample-hold
attr title "contention window, vector"
vector 365 RoutingScenario.node[11].app[0] packetSent:vector(packetBytes) ETV
attr interpolationmode none
attr source packetSent
attr title "packets sent, vector(packetBytes)"
vector 366 RoutingScenario.node[12].app[0] packetSent:vector(packetBytes) ETV
attr interpolationmode none
attr source packetSent
attr title "packets sent, vector(packetBytes)"
vector 367 RoutingScenario.node[13].app[0] packetSent:vector(packetBytes) ETV
attr interpolationmode none
attr source packetSent
attr title "packets sent, vector(packetBytes)"
vector 368 RoutingScenario.node[14].app[0] packetSent:vector(packetBytes) ETV
attr interpolationmode none
attr source packetSent
attr title "packets sent, vector(packetBytes)"
vector 369 RoutingScenario.node[15].app[0] packetSent:vector(packetBytes) ETV
attr interpolationmode none
attr source packetSent
attr title "packets sent, vector(packetBytes)"
vector 370 RoutingScenario.node[16].app[0] packetSent:vector(packetBytes) ETV
attr interpolationmode none
attr source packetSent
attr title "packets sent, vector(packetBytes)"
vector 371 RoutingScenario.node[17].app[0] packetSent:vector(packetBytes) ETV
attr interpolationmode none
attr source packetSent
attr title "packets sent, vector(packetBytes)"
vector 372 RoutingScenario.node[18].app[0] packetSent:vector(packetBytes) ETV
attr interpolationmode none
attr source packetSent
attr title "packets sent, vector(packetBytes)"
vector 373 RoutingScenario.node[19].app[0] packetSent:vector(packetBytes) ETV
attr interpolationmode none
attr source packetSent
attr title "packets sent, vector(packetBytes)"
vector 374 RoutingScenario.node[11].udp packetSent:vector(packetBytes) ETV
attr interpolationmode none
attr source packetSent
attr title "packets sent, vector(packetBytes)"
vector 375 RoutingScenario.node[12].udp packetSent:vector(packetBytes) ETV
attr interpolationmode none
attr source packetSent
attr title "packets sent, vector(packetBytes)"
vector 376 RoutingScenario.node[13].udp packetSent:vector(packetBytes) ETV
attr interpolationmode none
attr source packetSent
attr title "packets sent, vector(packetBytes)"
vector 377 RoutingScenario.node[14].udp packetSent:vector(packetBytes) ETV
attr interpolationmode none
attr source packetSent
attr title "packets sent, vector(packetBytes)"
vector 378 RoutingScenario.node[15].udp packetSent:vector(packetBytes) ETV
attr interpolationmode none
attr source packetSent
attr title "packets sent, vector(packetBytes)"
vector 379 RoutingScenario.node[16].udp packetSent:vector(packetBytes) ETV
attr interpolationmode none
attr source packetSent
attr title "packets sent, vector(packetBytes)"
vector 380 RoutingScenario.node[17].udp packetSent:vector(packetBytes) ETV
attr interpolationmode none
attr source packetSent
attr title "packets sent, vector(packetBytes)"
vector 381 RoutingScenario.node[18].udp packetSent:vector(packetBytes) ETV
attr interpolationmode none
attr source packetSent
attr title "packets sent, vector(packetBytes)"
vector 382 RoutingScenario.node[19].udp packetSent:vector(packetBytes) ETV
attr interpolationmode none
attr source packetSent
attr title "packets sent, vector(packetBytes)"
vector 383 RoutingScenario.node[14].wlan[0].mac packetReceivedFromUpper:vector(packetBytes) ETV
attr interpolationmode none
attr title "packets received from upper layer, vector(packetBytes)"
vector 384 RoutingScenario.node[14].wlan[0].mac.dcf.channelAccess.pendingQueue packetPushed:vector(packetBytes) ETV
attr interpolationmode none
attr title "packet pushed, vector(packetBytes)"
vector 385 RoutingScenario.node[14].wlan[0].mac.dcf.channelAccess.pendingQueue queueLength:vector ETV
attr interpolationmode sample-hold
attr source "count(packetPushed) - count(packetPopped) - count(packetRemoved) - count(packetDropped)"
attr title "queue length, vector"
vector 386 RoutingScenario.node[14].wlan[0].mac.dcf.channelAccess.contention backoffPeriodGenerated:vector ETV
attr interpolationmode none
attr title "backoff periods, vector"
vector 387 RoutingScenario.node[14].wlan[0].mac.dcf.channelAccess.contention backoffActive:vector ETV
attr interpolationmode sample-hold
attr source count(backoffStarted)-count(backoffStopped)
attr title "backoff active, vector"
[...]
748	73349	1.025353650162	218
748	73524	1.025645650162	219
748	73625	1.025820650162	220
748	73714	1.025995650162	221
748	73818	1.026209650162	222
748	73962	1.026449650162	223
748	74048	1.026650650162	224
748	74209	1.026825650162	225
749	20331	0.520105034627	82
749	21190	0.520481918564	82
749	22278	0.520907788123	82
749	23065	0.521264788123	82
749	23908	0.521582788123	82
749	24565	0.521822788123	82
749	25073	0.521997662807	82
749	25664	0.522237662807	82
749	26333	0.522477662807	82
749	27895	0.523048662807	82
749	28507	0.523327662807	82
749	28897	0.523489662807	82
749	29616	0.523794662807	82
749	31285	0.524409712971	82
749	32032	0.524727712971	82
749	32779	0.524993712971	82
749	32941	0.525350712971	82
749	33098	0.525668712971	82
749	33424	0.526343712971	82
749	33608	0.526687712971	82
749	33847	0.527128712971	82
749	33974	0.527420712971	82
749	34104	0.527751712971	82
749	34231	0.527978712971	82
749	34328	0.528231712971	82
749	34455	0.528458712971	82
749	34582	0.528763712971	82
749	34712	0.528990712971	82
749	34839	0.529295712971	82
749	35505	0.530612712971	82
749	35804	0.531183712971	82
749	35933	0.531449712971	82
749	36074	0.531663712971	82
749	36289	0.532052712971	82
749	36419	0.532318712971	82
749	36549	0.532649712971	82
749	36822	0.533194712971	82
749	36982	0.533551712971	82
749	37081	0.533817712971	82
749	37245	0.534161712971	82
749	37379	0.534388712971	82
749	37478	0.534589712971	82
749	37607	0.534868712971	82
749	37736	0.535043712971	82
749	37980	0.535497712971	82
749	38083	0.535737712971	82
749	38242	0.536042712971	82
749	38370	0.536347712971	82
749	38896	0.537463712971	82
749	39140	0.537852712971	82
749	39410	0.538319712971	82
749	39512	0.538611712971	82
749	39794	0.539091712971	82
749	39925	0.539344712971	82
749	40054	0.539584712971	82
749	40175	0.539928712971	82
749	40322	0.540142712971	82
749	40592	0.540700712971	82
749	40804	0.541076712971	82
749	41077	0.541556712971	82
749	41212	0.541848712971	82
749	41485	0.542380712971	82
749	41727	0.542795712971	82
749	41972	0.543275712971	82
749	42274	0.543807712971	82
749	42406	0.544086712971	82
749	42622	0.544449712971	82
749	42754	0.544663712971	82
749	42852	0.544877712971	82
749	43100	0.545318712971	82
749	43260	0.545675712971	82
749	43389	0.545954712971	82
749	43548	0.546194712971	82
749	43650	0.546356712971	82
749	43901	0.546836712971	82
749	44143	0.547303712971	82
749	44283	0.547647712971	82
749	44435	0.547913712971	82
749	44563	0.548088712971	82
749	44696	0.548328712971	82
749	44858	0.548659712971	82
749	44986	0.548899712971	82
749	45149	0.549230712971	82
749	45338	0.549587712971	82
749	45437	0.549814712971	82
749	45566	0.550067712971	82
749	45695	0.550307712971	82
749	45823	0.550534712971	82
749	45953	0.550852712971	82
749	46083	0.551157712971	82
749	50461	1.000105027346	82
749	50978	1.000280027346	82
749	51848	1.000601910081	82
749	52578	1.000923774784	82
749	53219	1.001150774784	82
749	54396	1.001554153259	82
749	54921	1.001716153259	82
749	56999	1.002597204667	82
749	57676	1.002837204667	82
749	58573	1.003168204667	82
749	59005	1.003330204667	82
749	59757	1.003674204667	82
749	60217	1.003850483928	82
749	61589	1.004331483777	82
749	62875	1.004915483777	82
749	63105	1.005077483777	82
749	63232	1.005304483777	82
749	63359	1.005479483777	82
749	63486	1.005719483777	82
749	63586	1.005946483777	82
749	63743	1.006225483777	82
749	63870	1.006452483777	82
749	64000	1.006783483777	82
749	64100	1.007023483777	82
749	64260	1.007224483777	82
749	64469	1.007626483777	82
749	64910	1.008580483777	82
749	65149	1.009060483777	82
749	65276	1.009417483777	82
749	65403	1.009631483777	82
749	65560	1.009975483777	82
749	65719	1.010228483777	82
749	65821	1.010403483777	82
749	65953	1.010604483777	82
749	66085	1.010805483777	82
749	66531	1.011642483777	82
749	66660	1.011947483777	82
749	66792	1.012226483777	82
749	66925	1.012531483777	82
749	67084	1.012823483777	82
749	67186	1.012998483777	82
749	67315	1.013186483777	82
749	67446	1.013387483777	82
749	67602	1.013692483777	82
749	68031	1.014451483777	82
749	68306	1.014996483777	82
749	68436	1.015301483777	82
749	68566	1.015567483777	82
749	68755	1.015859483777	82
749	68968	1.016235483777	82
749	69127	1.016553483777	82
749	69226	1.016793483777	82
749	69388	1.017150483777	82
749	69487	1.017364483777	82
749	69875	1.018240483777	82
749	70034	1.018597483777	82
749	70422	1.019291483777	82
749	70524	1.019531483777	82
749	70825	1.020180483777	82
749	70956	1.020524483777	82
749	71114	1.020868483777	82
749	71242	1.021056483777	82
749	71370	1.021257483777	82
749	71529	1.021575483777	82
749	71691	1.021919483777	82
749	71821	1.022224483777	82
749	72208	1.022931483777	82
749	72423	1.023307483777	82
749	72580	1.023664483777	82
749	72710	1.023969483777	82
749	72878	1.024313483777	82
749	73320	1.025267483777	82
749	73596	1.025721483777	82
749	73759	1.026026483777	82
749	74093	1.026662483777	82
749	74192	1.026824483777	82
750	20331	0.520105034627	82
750	21190	0.520481918564	82
750	22278	0.520907788123	82
750	23065	0.521264788123	82
750	23908	0.521582788123	82
750	24565	0.521822788123	82
750	25073	0.521997662807	82
750	25664	0.522237662807	82
750	26333	0.522477662807	82
750	27895	0.523048662807	82
750	28507	0.523327662807	82
750	28897	0.523489662807	82
750	29616	0.523794662807	82
750	31285	0.524409712971	82
750	32032	0.524727712971	82
750	32779	0.524993712971	82
750	32941	0.525350712971	82
750	33098	0.525668712971	82
750	33424	0.526343712971	82
750	33608	0.526687712971	82
750	33847	0.527128712971	82
750	33974	0.527420712971	82
750	34104	0.527751712971	82
750	34231	0.527978712971	82
750	34328	0.528231712971	82
750	34455	0.528458712971	82
750	34582	0.528763712971	82
750	34712	0.528990712971	82
750	34839	0.529295712971	82
750	35505	0.530612712971	82
750	35804	0.531183712971	82
750	35933	0.531449712971	82
750	36074	0.531663712971	82
750	36289	0.532052712971	82
750	36419	0.532318712971	82
750	36549	0.532649712971	82
750	36822	0.533194712971	82
750	36982	0.533551712971	82
750	37081	0.533817712971	82
750	37245	0.534161712971	82
750	37379	0.534388712971	82
750	37478	0.534589712971	82
750	37607	0.534868712971	82
750	37736	0.535043712971	82
750	37980	0.535497712971	82
750	38083	0.535737712971	82
750	38242	0.536042712971	82
750	38370	0.536347712971	82
750	38896	0.537463712971	82
750	39140	0.537852712971	82
750	39410	0.538319712971	82
750	39512	0.538611712971	82
750	39794	0.539091712971	82
750	39925	0.539344712971	82
750	40054	0.539584712971	82
750	40175	0.539928712971	82
750	40322	0.540142712971	82
750	40592	0.540700712971	82
750	40804	0.541076712971	82
750	41077	0.541556712971	82
750	41212	0.541848712971	82
750	41485	0.542380712971	82
750	41727	0.542795712971	82
750	41972	0.543275712971	82
750	42274	0.543807712971	82
750	42406	0.544086712971	82
750	42622	0.544449712971	82
750	42754	0.544663712971	82
750	42852	0.544877712971	82
750	43100	0.545318712971	82
750	43260	0.545675712971	82
750	43389	0.545954712971	82
750	43548	0.546194712971	82
750	43650	0.546356712971	82
750	43901	0.546836712971	82
750	44143	0.547303712971	82
750	44283	0.547647712971	82
750	44435	0.547913712971	82
750	44563	0.548088712971	82
750	44696	0.548328712971	82
750	44858	0.548659712971	82
750	44986	0.548899712971	82
750	45149	0.549230712971	82
750	45338	0.549587712971	82
750	45437	0.549814712971	82
750	45566	0.550067712971	82
750	45695	0.550307712971	82
750	45823	0.550534712971	82
750	45953	0.550852712971	82
750	46083	0.551157712971	82
750	50461	1.000105027346	82
750	50978	1.000280027346	82
750	51848	1.000601910081	82
750	52578	1.000923774784	82
750	53219	1.001150774784	82
750	54396	1.001554153259	82
750	54921	1.001716153259	82
750	56999	1.002597204667	82
750	57676	1.002837204667	82
750	58573	1.003168204667	82
750	59005	1.003330204667	82
750	59757	1.003674204667	82
750	60217	1.003850483928	82
750	61589	1.004331483777	82
750	62875	1.004915483777	82
750	63105	1.005077483777	82
750	63232	1.005304483777	82
750	63359	1.005479483777	82
750	63486	1.005719483777	82
750	63586	1.005946483777	82
750	63743	1.006225483777	82
750	63870	1.006452483777	82
750	64000	1.006783483777	82
750	64100	1.007023483777	82
750	64260	1.007224483777	82
750	64469	1.007626483777	82
750	64910	1.008580483777	82
750	65149	1.009060483777	82
750	65276	1.009417483777	82
750	65403	1.009631483777	82
750	65560	1.009975483777	82
750	65719	1.010228483777	82
750	65821	1.010403483777	82
750	65953	1.010604483777	82
750	66085	1.010805483777	82
750	66531	1.011642483777	82
750	66660	1.011947483777	82
750	66792	1.012226483777	82
750	66925	1.012531483777	82
750	67084	1.012823483777	82
750	67186	1.012998483777	82
750	67315	1.013186483777	82
750	67446	1.013387483777	82
750	67602	1.013692483777	82
750	68031	1.014451483777	82
750	68306	1.014996483777	82
750	68436	1.015301483777	82
750	68566	1.015567483777	82
750	68755	1.015859483777	82
750	68968	1.016235483777	82
750	69127	1.016553483777	82
750	69226	1.016793483777	82
750	69388	1.017150483777	82
750	69487	1.017364483777	82
750	69875	1.018240483777	82
750	70034	1.018597483777	82
750	70422	1.019291483777	82
750	70524	1.019531483777	82
750	70825	1.020180483777	82
750	70956	1.020524483777	82
750	71114	1.020868483777	82
750	71242	1.021056483777	82
750	71370	1.021257483777	82
750	71529	1.021575483777	82
750	71691	1.021919483777	82
750	71821	1.022224483777	82
750	72208	1.022931483777	82
750	72423	1.023307483777	82
750	72580	1.023664483777	82
750	72710	1.023969483777	82
750	72878	1.024313483777	82
750	73320	1.025267483777	82
750	73596	1.025721483777	82
750	73759	1.026026483777	82
750	74093	1.026662483777	82
750	74192	1.026824483777	82
751	21192	0.52048211914	82
751	30504	0.524088045787	82
751	51850	1.000602107199	82
751	56267	1.002301538005	82
752	21192	0.52048211914	82
752	30504	0.524088045787	82
752	51850	1.000602107199	82
752	56267	1.002301538005	82
753	21196	0.520482197684	82
753	24561	0.521822428479	82
753	26329	0.522477303163	82
753	51854	1.000602188126	82
753	53215	1.001150416743	82
754	21196	0.520482197684	82
754	24561	0.521822428479	82
754	26329	0.522477303163	82
754	51854	1.000602188126	82
754	53215	1.001150416743	82
755	24299	0.521754503908	82
755	51340	1.000436681342	82
756	24299	0.521754503908	82
756	51340	1.000436681342	82
757	24301	0.5217549124	82
757	51342	1.000437093469	82
758	24301	0.5217549124	82
758	51342	1.000437093469	82
759	24563	0.521822653247	82
759	26331	0.522477527931	82
759	30500	0.524087642226	82
759	48317	0.720337667584	82
759	53217	1.001150641046	82
760	24563	0.521822653247	82
760	26331	0.522477527931	82
760	30500	0.524087642226	82
760	48317	0.720337667584	82
760	53217	1.001150641046	82
761	26345	0.522478492568	82
761	53416	1.001216608429	82
762	26345	0.522478492568	82
762	53416	1.001216608429	82
763	26348	0.52247858077	82
763	30502	0.524087812782	82
763	53419	1.001216695828	82
763	56265	1.002301306783	82
764	26348	0.52247858077	82
764	30502	0.524087812782	82
764	53419	1.001216695828	82
764	56265	1.002301306783	82
765	26354	0.522478978048	82
765	47283	0.622495869989	82
765	47347	0.622697010265	82
765	53425	1.001217092773	82
766	26354	0.522478978048	82
766	53425	1.001217092773	82
767	26354	0.522478978048	82
767	53425	1.001217092773	82
768	30185	0.523994758441	82
768	61354	1.004273090073	82
769	30185	0.523994758441	82
770	30185	0.523994758441	82
771	47086	0.621482870289	82
772	47086	0.621482870289	82
773	47142	0.621529203182	82
774	47142	0.621529203182	82
775	47283	0.622495869989	82
775	47347	0.622697010265	82
776	47283	0.622495869989	82
776	47347	0.622697010265	82
777	47283	0.622495869989	82
777	47347	0.622697010265	82
778	47283	0.622495869989	82
778	47347	0.622697010265	82
779	47283	0.622495869989	54
779	47347	0.622697010265	54
780	47286	0.622495869989	32
780	47350	0.622697010265	32
781	47286	0.622495869989	1
781	47350	0.622697010265	2
782	48315	0.720337497206	82
783	48315	0.720337497206	82
784	61354	1.004273090073	82
785	61354	1.004273090073	82
786	61354	1.004273090073	82
787	61354	1.004273090073	82
788	61354	1.004273090073	54
789	61357	1.004273090073	32
790	61357	1.004273090073	1
vector 791 RoutingScenario.node[0].app[0] throughput:vector ETV
attr source throughput(packetReceived)
attr title "throughput, vector"
attr unit bps
vector 792 RoutingScenario.node[1].app[0] throughput:vector ETV
attr source throughput(packetReceived)
attr title "throughput, vector"
attr unit bps
vector 793 RoutingScenario.node[2].app[0] throughput:vector ETV
attr source throughput(packetReceived)
attr title "throughput, vector"
attr unit bps
vector 794 RoutingScenario.node[3].app[0] throughput:vector ETV
attr source throughput(packetReceived)
attr title "throughput, vector"
attr unit bps
vector 795 RoutingScenario.node[4].app[0] throughput:vector ETV
attr source throughput(packetReceived)
attr title "throughput, vector"
attr unit bps
vector 796 RoutingScenario.node[5].app[0] throughput:vector ETV
attr source throughput(packetReceived)
attr title "throughput, vector"
attr unit bps
vector 797 RoutingScenario.node[6].app[0] throughput:vector ETV
attr source throughput(packetReceived)
attr title "throughput, vector"
attr unit bps
vector 798 RoutingScenario.node[7].app[0] throughput:vector ETV
attr source throughput(packetReceived)
attr title "throughput, vector"
attr unit bps
vector 799 RoutingScenario.node[8].app[0] throughput:vector ETV
attr source throughput(packetReceived)
attr title "throughput, vector"
attr unit bps
vector 800 RoutingScenario.node[9].app[0] throughput:vector ETV
attr source throughput(packetReceived)
attr title "throughput, vector"
attr unit bps
vector 801 RoutingScenario.node[10].app[0] throughput:vector ETV
attr source throughput(packetReceived)
attr title "throughput, vector"
attr unit bps
vector 802 RoutingScenario.node[11].app[0] throughput:vector ETV
attr source throughput(packetReceived)
attr title "throughput, vector"
attr unit bps
vector 803 RoutingScenario.node[12].app[0] throughput:vector ETV
attr source throughput(packetReceived)
attr title "throughput, vector"
attr unit bps
vector 804 RoutingScenario.node[13].app[0] throughput:vector ETV
attr source throughput(packetReceived)
attr title "throughput, vector"
attr unit bps
vector 805 RoutingScenario.node[14].app[0] throughput:vector ETV
attr source throughput(packetReceived)
attr title "throughput, vector"
attr unit bps
vector 806 RoutingScenario.node[15].app[0] throughput:vector ETV
attr source throughput(packetReceived)
attr title "throughput, vector"
attr unit bps
vector 807 RoutingScenario.node[16].app[0] throughput:vector ETV
attr source throughput(packetReceived)
attr title "throughput, vector"
attr unit bps
vector 808 RoutingScenario.node[17].app[0] throughput:vector ETV
attr source throughput(packetReceived)
attr title "throughput, vector"
attr unit bps
vector 809 RoutingScenario.node[18].app[0] throughput:vector ETV
attr source throughput(packetReceived)
attr title "throughput, vector"
attr unit bps
vector 810 RoutingScenario.node[19].app[0] throughput:vector ETV
attr source throughput(packetReceived)
attr title "throughput, vector"
attr unit bps
vector 811 RoutingScenario.node[20].app[0] throughput:vector ETV
attr source throughput(packetReceived)
attr title "throughput, vector"
attr unit bps
vector 812 RoutingScenario.node[21].app[0] throughput:vector ETV
attr source throughput(packetReceived)
attr title "throughput, vector"
attr unit bps
vector 813 RoutingScenario.node[22].app[0] throughput:vector ETV
attr source throughput(packetReceived)
attr title "throughput, vector"
attr unit bps
vector 814 RoutingScenario.node[23].app[0] throughput:vector ETV
attr source throughput(packetReceived)
attr title "throughput, vector"
attr unit bps
791	74240	0.1	0
791	74240	0.2	0
791	74240	0.3	0
791	74240	0.4	0
791	74240	0.5	0
791	74240	0.6	0
791	74240	0.7	0
791	74240	0.8	0
791	74240	0.9	0
791	74240	1	0
791	74240	1.026828725651	0
792	74240	0.1	0
792	74240	0.2	0
792	74240	0.3	0
792	74240	0.4	0
792	74240	0.5	0
792	74240	0.6	0
792	74240	0.7	0
792	74240	0.8	0
792	74240	0.9	0
792	74240	1	0
792	74240	1.026828725651	0
793	74240	0.1	0
793	74240	0.2	0
793	74240	0.3	0
793	74240	0.4	0
793	74240	0.5	0
793	74240	0.6	0
793	74240	0.7	0
793	74240	0.8	0
793	74240	0.9	0
793	74240	1	0
793	74240	1.026828725651	0
794	74240	0.1	0
794	74240	0.2	0
794	74240	0.3	0
794	74240	0.4	0
794	74240	0.5	0
794	74240	0.6	0
794	74240	0.7	0
794	74240	0.8	0
794	74240	0.9	0
794	74240	1	0
794	74240	1.026828725651	0
795	74240	0.1	0
795	74240	0.2	0
795	74240	0.3	0
795	74240	0.4	0
795	74240	0.5	0
795	74240	0.6	0
795	74240	0.7	0
795	74240	0.8	0
795	74240	0.9	0
795	74240	1	0
795	74240	1.026828725651	0
796	74240	0.1	0
796	74240	0.2	0
796	74240	0.3	0
796	74240	0.4	0
796	74240	0.5	0
796	74240	0.6	0
796	74240	0.7	0
796	74240	0.8	0
796	74240	0.9	0
796	74240	1	0
796	74240	1.026828725651	0
797	74240	0.1	0
797	74240	0.2	0
797	74240	0.3	0
797	74240	0.4	0
797	74240	0.5	0
797	74240	0.6	0
797	74240	0.7	0
797	74240	0.8	0
797	74240	0.9	0
797	74240	1	0
797	74240	1.026828725651	0
798	74240	0.1	0
798	74240	0.2	0
798	74240	0.3	0
798	74240	0.4	0
798	74240	0.5	0
798	74240	0.6	0
798	74240	0.7	0
798	74240	0.8	0
798	74240	0.9	0
798	74240	1	0
798	74240	1.026828725651	0
799	74240	0.1	0
799	74240	0.2	0
799	74240	0.3	0
799	74240	0.4	0
799	74240	0.5	0
799	74240	0.6	0
799	74240	0.7	0
799	74240	0.8	0
799	74240	0.9	0
799	74240	1	0
799	74240	1.026828725651	0
800	74240	0.1	0
800	74240	0.2	0
800	74240	0.3	0
800	74240	0.4	0
800	74240	0.5	0
800	74240	0.6	0
800	74240	0.7	0
800	74240	0.8	0
800	74240	0.9	0
800	74240	1	0
800	74240	1.026828725651	0
801	74240	0.1	0
801	74240	0.2	0
801	74240	0.3	0
801	74240	0.4	0
801	74240	0.5	0
801	74240	0.6	0
801	74240	0.7	0
801	74240	0.8	0
801	74240	0.9	0
801	74240	1	0
801	74240	1.026828725651	0
802	74240	0.1	0
802	74240	0.2	0
802	74240	0.3	0
802	74240	0.4	0
802	74240	0.5	0
802	74240	0.6	0
802	74240	0.7	0
802	74240	0.8	0
802	74240	0.9	0
802	74240	1	0
802	74240	1.026828725651	0
803	74240	0.1	0
803	74240	0.2	0
803	74240	0.3	0
803	74240	0.4	0
803	74240	0.5	0
803	74240	0.6	0
803	74240	0.7	0
803	74240	0.8	0
803	74240	0.9	0
803	74240	1	0
803	74240	1.026828725651	0
804	74240	0.1	0
804	74240	0.2	0
804	74240	0.3	0
804	74240	0.4	0
804	74240	0.5	0
804	74240	0.6	0
804	74240	0.7	0
804	74240	0.8	0
804	74240	0.9	0
804	74240	1	0
804	74240	1.026828725651	0
805	74240	0.1	0
805	74240	0.2	0
805	74240	0.3	0
805	74240	0.4	0
805	74240	0.5	0
805	74240	0.6	0
805	74240	0.7	0
805	74240	0.8	0
805	74240	0.9	0
805	74240	1	0
805	74240	1.026828725651	0
806	74240	0.1	0
806	74240	0.2	0
806	74240	0.3	0
806	74240	0.4	0
806	74240	0.5	0
806	74240	0.6	0
806	74240	0.7	0
806	74240	0.8	0
806	74240	0.9	0
806	74240	1	0
806	74240	1.026828725651	0
807	74240	0.1	0
807	74240	0.2	0
807	74240	0.3	0
807	74240	0.4	0
807	74240	0.5	0
807	74240	0.6	0
807	74240	0.7	0
807	74240	0.8	0
807	74240	0.9	0
807	74240	1	0
807	74240	1.026828725651	0
808	74240	0.1	0
808	74240	0.2	0
808	74240	0.3	0
808	74240	0.4	0
808	74240	0.5	0
808	74240	0.6	0
808	74240	0.7	0
808	74240	0.8	0
808	74240	0.9	0
808	74240	1	0
808	74240	1.026828725651	0
809	74240	0.1	0
809	74240	0.2	0
809	74240	0.3	0
809	74240	0.4	0
809	74240	0.5	0
809	74240	0.6	0
809	74240	0.7	0
809	74240	0.8	0
809	74240	0.9	0
809	74240	1	0
809	74240	1.026828725651	0
810	74240	0.1	0
810	74240	0.2	0
810	74240	0.3	0
810	74240	0.4	0
810	74240	0.5	0
810	74240	0.6	0
810	74240	0.7	0
810	74240	0.8	0
810	74240	0.9	0
810	74240	1	0
810	74240	1.026828725651	0
811	74240	0.1	0
811	74240	0.2	0
811	74240	0.3	0
811	74240	0.4	0
811	74240	0.5	0
811	74240	0.6	0
811	74240	0.7	0
811	74240	0.8	0
811	74240	0.9	0
811	74240	1	0
811	74240	1.026828725651	0
812	74240	0.1	0
812	74240	0.2	0
812	74240	0.3	0
812	74240	0.4	0
812	74240	0.5	0
812	74240	0.6	0
812	74240	0.7	0
812	74240	0.8	0
812	74240	0.9	0
812	74240	1	0
812	74240	1.026828725651	0
813	74240	0.1	0
813	74240	0.2	0
813	74240	0.3	0
813	74240	0.4	0
813	74240	0.5	0
813	74240	0.6	0
813	74240	0.7	0
813	74240	0.8	0
813	74240	0.9	0
813	74240	1	0
813	74240	1.026828725651	0
814	74240	0.1	0
814	74240	0.2	0
814	74240	0.3	0
814	74240	0.4	0
814	74240	0.5	0
814	74240	0.6	0
814	74240	0.7	0
814	74240	0.8	0
814	74240	0.9	0
814	74240	1	0
814	74240	1.026828725651	0

