version 2
run canvas-0-20220714-08:42:53-3693
attr configname canvas
attr datetime 20220714-08:42:53
attr experiment canvas
attr inifile omnetpp.ini
attr iterationvars ""
attr iterationvarsf ""
attr measurement ""
attr network RoutingScenario
attr processid 3693
attr repetition 0
attr replication #0
attr resultdir results
attr runnumber 0
attr seedset 0
param *.visualizer.*.obstacleLossVisualizer.displayIntersections true
param *.visualizer.*.obstacleLossVisualizer.displayFaceNormalVectors true
param *.visualizer.*.obstacleLossVisualizer.intersectionLineColor "\"yellow\""
param *.visualizer.*.mediumVisualizer.signalPropagationAnimationSpeed 500/3e8
param *.visualizer.*.mediumVisualizer.signalTransmissionAnimationSpeed 50000/3e8
param *.visualizer.*.mediumVisualizer.displaySignals true
param *.visualizer.canvasVisualizer.mediumVisualizer.displaySignalDepartures false
param *.visualizer.canvasVisualizer.mediumVisualizer.displaySignalArrivals false
param *.visualizer.*.physicalLinkVisualizer.displayLinks true
param *.visualizer.*.mobilityVisualizer.displayPositions true
param *.visualizer.*.mobilityVisualizer.displayOrientations true
param *.visualizer.*.mobilityVisualizer.displayVelocities true
param *.visualizer.*.mobilityVisualizer.displayMovementTrails true
param *.visualizer.*.mobilityVisualizer.moduleFilter "\"**.antenna.mobility\""
param *.node[5].router "\"FloodingRSA\""
param *.node[7].router "\"FloodingRSA\""
param *.node[*].router "\"SecureAodv\""
param *.node[*].numApps 1
param *.node[*].app[0].typename "\"UdpBasicApp\""
param *.node[*].app[0].destAddresses "\"node[*]\""
param *.node[*].app[0].destPort 5000
param *.node[*].app[0].messageLength 1000B
param *.node[*].app[0].sendInterval exponential(12ms)
param *.node[*].app[0].packetName "\"UDPData\""
param *.node[*].wlan[0].opMode "\"p\""
param *.node[*].wlan[0].radio.bandName "\"5.9 GHz\""
param *.node[*].wlan[0].radio.channelNumber 3
param *.node[*].wlan[0].radio.transmitter.power 20mW
param *.node[*].wlan[0].radio.bandwidth "10 MHz"
param *.node[*].ipv4.configurator.typename "\"HostAutoConfigurator\""
param *.node[*].ipv4.configurator.interfaces "\"wlan0\""
param *.node[*].ipv4.configurator.mcastGroups "\"224.0.0.1\""
param *.node[*].mobility.typename "\"VeinsInetMobility\""
param *.node[*].mobility.speed 20mps
param *.manager.updateInterval 0.1s
param *.manager.host "\"localhost\""
param *.manager.port 9999
param *.manager.autoShutdown true
param *.manager.launchConfig "xmldoc(\"bari.launchd.xml\")"
param *.manager.moduleType "\"vanetnetsec.veins_inet.VeinsInetRoutingCar\""
param *.physicalEnvironment.config "xmldoc(\"obstacles.xml\")"
param *.radioMedium.obstacleLoss.typename "\"IdealObstacleLoss\""

scalar RoutingScenario.radioMedium.propagation "Arrival computation count" 13714
scalar RoutingScenario.radioMedium "transmission count" 740
scalar RoutingScenario.radioMedium "signal send count" 13714
scalar RoutingScenario.radioMedium "reception computation count" 13714
scalar RoutingScenario.radioMedium "interference computation count" 39462
scalar RoutingScenario.radioMedium "reception decision computation count" 1920
scalar RoutingScenario.radioMedium "listening decision computation count" 24134
scalar RoutingScenario.radioMedium "reception cache hit" 81.519014634935
attr unit %
scalar RoutingScenario.radioMedium "interference cache hit" 66.666666666667
attr unit %
scalar RoutingScenario.radioMedium "noise cache hit" 0
attr unit %
scalar RoutingScenario.radioMedium "snir cache hit" 50
attr unit %
scalar RoutingScenario.radioMedium "reception decision cache hit" 50
attr unit %
scalar RoutingScenario.radioMedium "reception result cache hit" 0
attr unit %
scalar RoutingScenario.manager roiArea 0
scalar RoutingScenario.node[0].lo[0].lo rcvdPkFromHl:count 73
attr interpolationmode none
attr source packetReceivedFromUpper
attr title "packets received from higher layer, count"
scalar RoutingScenario.node[0].lo[0].lo rcvdPkFromHl:sum(packetBytes) 75044
attr interpolationmode none
attr source packetReceivedFromUpper
attr title "packets received from higher layer, sum(packetBytes)"
scalar RoutingScenario.node[0].lo[0].lo passedUpPk:count 73
attr interpolationmode none
attr source packetSentToUpper
attr title "packets passed to higher layer, count"
scalar RoutingScenario.node[0].lo[0].lo passedUpPk:sum(packetBytes) 75044
attr interpolationmode none
attr source packetSentToUpper
attr title "packets passed to higher layer, sum(packetBytes)"
scalar RoutingScenario.node[0].wlan[0].mac.dcf.channelAccess.pendingQueue packetPopped:count 3
attr interpolationmode none
attr title "packet popped, count"
scalar RoutingScenario.node[0].wlan[0].mac.dcf.channelAccess.pendingQueue packetPopped:sum(packetBytes) 194
attr interpolationmode none
attr title "packet popped, sum(packetBytes)"
statistic RoutingScenario.node[0].wlan[0].mac.dcf.channelAccess.pendingQueue queueingTime:histogram
field count 3
field mean 0.000187
field stddev 8.9504189846062e-05
field min 9.7e-05
field max 0.000276
field sum 0.000561
field sqrsum 1.20929e-07
attr interpolationmode none
attr source queueingTime(packetPopped)
attr title "queueing times, histogram"
attr unit s
bin	-inf	0
bin	5e-05	0
bin	5.5e-05	0
bin	6e-05	0
bin	6.5e-05	0
bin	7e-05	0
bin	7.5e-05	0
bin	8e-05	0
bin	8.5e-05	0
bin	9e-05	0
bin	9.5e-05	1
bin	0.0001	0
bin	0.000105	0
bin	0.00011	0
bin	0.000115	0
bin	0.00012	0
bin	0.000125	0
bin	0.00013	0
bin	0.000135	0
bin	0.00014	0
bin	0.000145	0
bin	0.00015	0
bin	0.000155	0
bin	0.00016	0
bin	0.000165	0
bin	0.00017	0
bin	0.000175	0
bin	0.00018	0
bin	0.000185	1
bin	0.00019	0
bin	0.000195	0
bin	0.0002	0
bin	0.000205	0
bin	0.00021	0
bin	0.000215	0
bin	0.00022	0
bin	0.000225	0
bin	0.00023	0
bin	0.000235	0
bin	0.00024	0
bin	0.000245	0
bin	0.00025	0
bin	0.000255	0
bin	0.00026	0
bin	0.000265	0
bin	0.00027	0
bin	0.000275	1
bin	0.00028	0
bin	0.000285	0
bin	0.00029	0
bin	0.000295	0
bin	0.0003	0
bin	0.000305	0
bin	0.00031	0
bin	0.000315	0
bin	0.00032	0
bin	0.000325	0
scalar RoutingScenario.node[0].wlan[0].mac.dcf.channelAccess.pendingQueue queueLength:max 1
attr interpolationmode sample-hold
attr source "count(packetPushed) - count(packetPopped) - count(packetRemoved) - count(packetDropped)"
attr title "queue length, max"
scalar RoutingScenario.node[0].wlan[0].mac.dcf.channelAccess.pendingQueue queueLength:timeavg 0.00068155268945054
attr interpolationmode sample-hold
attr source "count(packetPushed) - count(packetPopped) - count(packetRemoved) - count(packetDropped)"
attr title "queue length, timeavg"
scalar RoutingScenario.node[0].wlan[0].mac.dcf.channelAccess.pendingQueue packetPushed:count 3
attr interpolationmode none
attr title "packet pushed, count"
scalar RoutingScenario.node[0].wlan[0].mac.dcf.channelAccess.pendingQueue packetPushed:sum(packetBytes) 194
attr interpolationmode none
attr title "packet pushed, sum(packetBytes)"
scalar RoutingScenario.node[0].wlan[0].mac.dcf.channelAccess.pendingQueue packetDropQueueOverflow:count 0
attr interpolationmode none
attr source packetDropReasonIsQueueOverflow(packetDropped)
attr title "packet drops: queue overflow, count"
scalar RoutingScenario.node[0].wlan[0].mac.dcf.channelAccess.pendingQueue packetDropQueueOverflow:sum(packetBytes) 0
attr interpolationmode none
attr source packetDropReasonIsQueueOverflow(packetDropped)
attr title "packet drops: queue overflow, sum(packetBytes)"
scalar RoutingScenario.node[0].wlan[0].mac.dcf.channelAccess.pendingQueue packetRemoved:count 0
attr interpolationmode none
attr title "packets removed, count"
scalar RoutingScenario.node[0].wlan[0].mac.dcf.channelAccess.pendingQueue packetRemoved:sum(packetBytes) 0
attr interpolationmode none
attr title "packets removed, sum(packetBytes)"
statistic RoutingScenario.node[0].wlan[0].mac.dcf.channelAccess.inProgressFrames queueingTime:histogram
field count 3
field mean 0.00012016699066667
field stddev 5.5714862161261e-05
field min 8.8e-05
field max 0.000184500972
field sum 0.000360500972
field sqrsum 4.9528608668945e-08
attr interpolationmode none
attr source queueingTime(packetDequeued)
attr title "queueing times, histogram"
bin	-inf	0
bin	6.2e-05	0
bin	6.4e-05	0
bin	6.6e-05	0
bin	6.8e-05	0
bin	7e-05	0
bin	7.2e-05	0
bin	7.4e-05	0
bin	7.6e-05	0
bin	7.8e-05	0
bin	8e-05	0
bin	8.2e-05	0
bin	8.4e-05	0
bin	8.6e-05	2
bin	8.8e-05	0
bin	9e-05	0
bin	9.2e-05	0
bin	9.4e-05	0
bin	9.6e-05	0
bin	9.8e-05	0
bin	0.0001	0
bin	0.000102	0
bin	0.000104	0
bin	0.000106	0
bin	0.000108	0
bin	0.00011	0
bin	0.000112	0
bin	0.000114	0
bin	0.000116	0
bin	0.000118	0
bin	0.00012	0
bin	0.000122	0
bin	0.000124	0
bin	0.000126	0
bin	0.000128	0
bin	0.00013	0
bin	0.000132	0
bin	0.000134	0
bin	0.000136	0
bin	0.000138	0
bin	0.00014	0
bin	0.000142	0
bin	0.000144	0
bin	0.000146	0
bin	0.000148	0
bin	0.00015	0
bin	0.000152	0
bin	0.000154	0
bin	0.000156	0
bin	0.000158	0
bin	0.00016	0
bin	0.000162	0
bin	0.000164	0
bin	0.000166	0
bin	0.000168	0
bin	0.00017	0
bin	0.000172	0
bin	0.000174	0
bin	0.000176	0
bin	0.000178	0
bin	0.00018	0
bin	0.000182	0
bin	0.000184	1
bin	0.000186	0
bin	0.000188	0
bin	0.00019	0
bin	0.000192	0
bin	0.000194	0
bin	0.000196	0
bin	0.000198	0
bin	0.0002	0
bin	0.000202	0
bin	0.000204	0
bin	0.000206	0
bin	0.000208	0
bin	0.00021	0
scalar RoutingScenario.node[0].wlan[0].mac.dcf.channelAccess.inProgressFrames queueLength:max 1
attr interpolationmode sample-hold
attr source "count(packetEnqueued) - count(packetDequeued)"
attr title "queue length, max"
scalar RoutingScenario.node[0].wlan[0].mac.dcf.channelAccess.inProgressFrames queueLength:timeavg 0.00043802025811582
attr interpolationmode sample-hold
attr source "count(packetEnqueued) - count(packetDequeued)"
attr title "queue length, timeavg"
scalar RoutingScenario.node[0].wlan[0].mac.dcf.channelAccess.contention channelAccessGranted:count 3
attr title "channel access granted, count"
scalar RoutingScenario.node[0].wlan[0].mac.dcf.channelAccess.contention stateChanged:count 58
attr interpolationmode none
attr title "contention state changed, count"
scalar RoutingScenario.node[0].wlan[0].mac.dcf.channelAccess channelOwnershipChanged:count 6
attr interpolationmode sample-hold
attr title "channel ownership, count"
scalar RoutingScenario.node[0].wlan[0].mac.dcf.originatorMacDataService packetAggregated:count 0
attr title "packets aggregated, count"
scalar RoutingScenario.node[0].wlan[0].mac.dcf.originatorMacDataService packetFragmented:count 0
attr title "packets fragmented, count"
scalar RoutingScenario.node[0].wlan[0].mac.dcf.recipientMacDataService packetDeaggregated:count 0
attr title "packets deaggregated, count"
scalar RoutingScenario.node[0].wlan[0].mac.dcf.recipientMacDataService packetDefragmented:count 4
attr title "packets defragmented, count"
scalar RoutingScenario.node[0].wlan[0].mac.dcf.recipientMacDataService packetDropDuplicateDetected:count 0
attr interpolationmode none
attr source packetDropReasonIsDuplicateDetected(packetDropped)
attr title "packet drops: duplicate detected, count"
scalar RoutingScenario.node[0].wlan[0].mac.dcf.recipientMacDataService packetDropDuplicateDetected:sum(packetBytes) 0
attr interpolationmode none
attr source packetDropReasonIsDuplicateDetected(packetDropped)
attr title "packet drops: duplicate detected, sum(packetBytes)"
scalar RoutingScenario.node[0].wlan[0].mac.dcf.recoveryProcedure retryLimitReached:count 0
attr title "retry limit reached, count"
scalar RoutingScenario.node[0].wlan[0].mac.dcf frameSequenceFinished:count 3
attr title "finished frame sequences, count"
statistic RoutingScenario.node[0].wlan[0].mac.dcf frameSequenceDuration:histogram
field count 3
field mean 0.00012016699066667
field stddev 5.5714862161261e-05
field min 8.8e-05
field max 0.000184500972
field sum 0.000360500972
field sqrsum 4.9528608668945e-08
attr source frameSequenceDuration(frameSequenceFinished)
attr title "frame sequence durations, histogram"
bin	-inf	0
bin	6.2e-05	0
bin	6.4e-05	0
bin	6.6e-05	0
bin	6.8e-05	0
bin	7e-05	0
bin	7.2e-05	0
bin	7.4e-05	0
bin	7.6e-05	0
bin	7.8e-05	0
bin	8e-05	0
bin	8.2e-05	0
bin	8.4e-05	0
bin	8.6e-05	2
bin	8.8e-05	0
bin	9e-05	0
bin	9.2e-05	0
bin	9.4e-05	0
bin	9.6e-05	0
bin	9.8e-05	0
bin	0.0001	0
bin	0.000102	0
bin	0.000104	0
bin	0.000106	0
bin	0.000108	0
bin	0.00011	0
bin	0.000112	0
bin	0.000114	0
bin	0.000116	0
bin	0.000118	0
bin	0.00012	0
bin	0.000122	0
bin	0.000124	0
bin	0.000126	0
bin	0.000128	0
bin	0.00013	0
bin	0.000132	0
bin	0.000134	0
bin	0.000136	0
bin	0.000138	0
bin	0.00014	0
bin	0.000142	0
bin	0.000144	0
bin	0.000146	0
bin	0.000148	0
bin	0.00015	0
bin	0.000152	0
bin	0.000154	0
bin	0.000156	0
bin	0.000158	0
bin	0.00016	0
bin	0.000162	0
bin	0.000164	0
bin	0.000166	0
bin	0.000168	0
bin	0.00017	0
bin	0.000172	0
bin	0.000174	0
bin	0.000176	0
bin	0.000178	0
bin	0.00018	0
bin	0.000182	0
bin	0.000184	1
bin	0.000186	0
bin	0.000188	0
bin	0.00019	0
bin	0.000192	0
bin	0.000194	0
bin	0.000196	0
bin	0.000198	0
bin	0.0002	0
bin	0.000202	0
bin	0.000204	0
bin	0.000206	0
bin	0.000208	0
bin	0.00021	0
statistic RoutingScenario.node[0].wlan[0].mac.dcf frameSequenceNumPackets:histogram
field count 3
field mean 1.3333333333333
field stddev 0.57735026918963
field min 1
field max 2
field sum 4
field sqrsum 6
attr source frameSequenceNumPackets(frameSequenceFinished)
attr title "frame sequences: number of packets, histogram"
bin	-inf	0
bin	0	0
bin	1	2
bin	2	1
bin	3	0
scalar RoutingScenario.node[0].wlan[0].mac.dcf packetReceivedFromPeer:count 5
attr interpolationmode none
attr title "packets received, count"
scalar RoutingScenario.node[0].wlan[0].mac.dcf packetReceivedFromPeer:sum(packetBytes) 318
attr interpolationmode none
attr title "packets received, sum(packetBytes)"
scalar RoutingScenario.node[0].wlan[0].mac.dcf packetReceivedFromPeerUnicast:count 2
attr interpolationmode none
attr source ieee80211Unicast(packetReceivedFromPeer)
attr title "packets received: unicast, count"
scalar RoutingScenario.node[0].wlan[0].mac.dcf packetReceivedFromPeerUnicast:sum(packetBytes) 72
attr interpolationmode none
attr source ieee80211Unicast(packetReceivedFromPeer)
attr title "packets received: unicast, sum(packetBytes)"
scalar RoutingScenario.node[0].wlan[0].mac.dcf packetReceivedFromPeerMulticast:count 3
attr interpolationmode none
attr source ieee80211Multicast(packetReceivedFromPeer)
attr title "packets received: multicast, count"
scalar RoutingScenario.node[0].wlan[0].mac.dcf packetReceivedFromPeerMulticast:sum(packetBytes) 246
attr interpolationmode none
attr source ieee80211Multicast(packetReceivedFromPeer)
attr title "packets received: multicast, sum(packetBytes)"
scalar RoutingScenario.node[0].wlan[0].mac.dcf packetReceivedFromPeerBroadcast:count 3
attr interpolationmode none
attr source ieee80211Broadcast(packetReceivedFromPeer)
attr title "packets received: broadcast, count"
scalar RoutingScenario.node[0].wlan[0].mac.dcf packetReceivedFromPeerBroadcast:sum(packetBytes) 246
attr interpolationmode none
attr source ieee80211Broadcast(packetReceivedFromPeer)
attr title "packets received: broadcast, sum(packetBytes)"
scalar RoutingScenario.node[0].wlan[0].mac.dcf packetReceivedFromPeerWithRetry:count 0
attr interpolationmode none
attr source ieee80211Retry(packetReceivedFromPeer)
attr title "packets received: with retry, count"
scalar RoutingScenario.node[0].wlan[0].mac.dcf packetReceivedFromPeerWithRetry:sum(packetBytes) 0
attr interpolationmode none
attr source ieee80211Retry(packetReceivedFromPeer)
attr title "packets received: with retry, sum(packetBytes)"
scalar RoutingScenario.node[0].wlan[0].mac.dcf packetReceivedFromPeerWithoutRetry:count 5
attr interpolationmode none
attr source ieee80211NotRetry(packetReceivedFromPeer)
attr title "packets received: without retry, count"
scalar RoutingScenario.node[0].wlan[0].mac.dcf packetReceivedFromPeerWithoutRetry:sum(packetBytes) 318
attr interpolationmode none
attr source ieee80211NotRetry(packetReceivedFromPeer)
attr title "packets received: without retry, sum(packetBytes)"
scalar RoutingScenario.node[0].wlan[0].mac.dcf packetSentToPeer:count 4
attr interpolationmode none
attr title "packets sent, count"
scalar RoutingScenario.node[0].wlan[0].mac.dcf packetSentToPeer:sum(packetBytes) 208
attr interpolationmode none
attr title "packets sent, sum(packetBytes)"
scalar RoutingScenario.node[0].wlan[0].mac.dcf packetSentToPeerUnicast:count 2
attr interpolationmode none
attr source ieee80211Unicast(packetSentToPeer)
attr title "packets sent: unicast, count"
scalar RoutingScenario.node[0].wlan[0].mac.dcf packetSentToPeerUnicast:sum(packetBytes) 92
attr interpolationmode none
attr source ieee80211Unicast(packetSentToPeer)
attr title "packets sent: unicast, sum(packetBytes)"
scalar RoutingScenario.node[0].wlan[0].mac.dcf packetSentToPeerMulticast:count 2
attr interpolationmode none
attr source ieee80211Multicast(packetSentToPeer)
attr title "packets sent: multicast, count"
scalar RoutingScenario.node[0].wlan[0].mac.dcf packetSentToPeerMulticast:sum(packetBytes) 116
attr interpolationmode none
attr source ieee80211Multicast(packetSentToPeer)
attr title "packets sent: multicast, sum(packetBytes)"
scalar RoutingScenario.node[0].wlan[0].mac.dcf packetSentToPeerBroadcast:count 2
attr interpolationmode none
attr source ieee80211Broadcast(packetSentToPeer)
attr title "packets sent: broadcast , count"
scalar RoutingScenario.node[0].wlan[0].mac.dcf packetSentToPeerBroadcast:sum(packetBytes) 116
attr interpolationmode none
attr source ieee80211Broadcast(packetSentToPeer)
attr title "packets sent: broadcast , sum(packetBytes)"
scalar RoutingScenario.node[0].wlan[0].mac.dcf packetSentToPeerWithRetry:count 0
attr interpolationmode none
attr source ieee80211Retry(packetSentToPeer)
attr title "packets sent: with retry, count"
scalar RoutingScenario.node[0].wlan[0].mac.dcf packetSentToPeerWithRetry:sum(packetBytes) 0
attr interpolationmode none
attr source ieee80211Retry(packetSentToPeer)
attr title "packets sent: with retry, sum(packetBytes)"
scalar RoutingScenario.node[0].wlan[0].mac.dcf packetSentToPeerWithoutRetry:count 4
attr interpolationmode none
attr source ieee80211NotRetry(packetSentToPeer)
attr title "packets sent: without retry, count"
scalar RoutingScenario.node[0].wlan[0].mac.dcf packetSentToPeerWithoutRetry:sum(packetBytes) 208
attr interpolationmode none
attr source ieee80211NotRetry(packetSentToPeer)
attr title "packets sent: without retry, sum(packetBytes)"
scalar RoutingScenario.node[0].wlan[0].mac.dcf packetDrop:count 0
attr interpolationmode none
attr source packetDropped
attr title "packet drops, count"
scalar RoutingScenario.node[0].wlan[0].mac.dcf packetDrop:sum(packetBytes) 0
attr interpolationmode none
attr source packetDropped
attr title "packet drops, sum(packetBytes)"
scalar RoutingScenario.node[0].wlan[0].mac.dcf packetDropNotAddressedToUs:count 0
attr interpolationmode none
attr source packetDropReasonIsNotAddressedToUs(packetDropped)
attr title "packet drops: not addressed to us, count"
scalar RoutingScenario.node[0].wlan[0].mac.dcf packetDropNotAddressedToUs:sum(packetBytes) 0
attr interpolationmode none
attr source packetDropReasonIsNotAddressedToUs(packetDropped)
attr title "packet drops: not addressed to us, sum(packetBytes)"
scalar RoutingScenario.node[0].wlan[0].mac.dcf packetDropQueueOverflow:count 0
attr interpolationmode none
attr source packetDropReasonIsQueueOverflow(packetDropped)
attr title "packet drops: queue overflow, count"
scalar RoutingScenario.node[0].wlan[0].mac.dcf packetDropQueueOverflow:sum(packetBytes) 0
attr interpolationmode none
attr source packetDropReasonIsQueueOverflow(packetDropped)
attr title "packet drops: queue overflow, sum(packetBytes)"
scalar RoutingScenario.node[0].wlan[0].mac.dcf packetDropRetryLimitReached:count 0
attr interpolationmode none
attr source packetDropReasonIsRetryLimitReached(packetDropped)
attr title "packet drops: retry limit reached, count"
scalar RoutingScenario.node[0].wlan[0].mac.dcf packetDropRetryLimitReached:sum(packetBytes) 0
attr interpolationmode none
attr source packetDropReasonIsRetryLimitReached(packetDropped)
attr title "packet drops: retry limit reached, sum(packetBytes)"
scalar RoutingScenario.node[0].wlan[0].mac.dcf linkBroken:count 0
attr interpolationmode none
attr title "link breaks, count"
scalar RoutingScenario.node[0].wlan[0].mac packetReceivedFromLower:count 7
attr interpolationmode none
attr title "packets received from lower layer, count"
scalar RoutingScenario.node[0].wlan[0].mac packetReceivedFromLower:sum(packetBytes) 482
attr interpolationmode none
attr title "packets received from lower layer, sum(packetBytes)"
scalar RoutingScenario.node[0].wlan[0].mac packetSentToLower:count 4
attr interpolationmode none
attr title "packets sent to lower layer, count"
scalar RoutingScenario.node[0].wlan[0].mac packetSentToLower:sum(packetBytes) 208
attr interpolationmode none
attr title "packets sent to lower layer, sum(packetBytes)"
scalar RoutingScenario.node[0].wlan[0].mac packetReceivedFromUpper:count 3
attr interpolationmode none
attr title "packets received from upper layer, count"
scalar RoutingScenario.node[0].wlan[0].mac packetReceivedFromUpper:sum(packetBytes) 110
attr interpolationmode none
attr title "packets received from upper layer, sum(packetBytes)"
scalar RoutingScenario.node[0].wlan[0].mac packetSentToUpper:count 4
attr interpolationmode none
attr title "packets sent to upper layer, count"
scalar RoutingScenario.node[0].wlan[0].mac packetSentToUpper:sum(packetBytes) 192
attr interpolationmode none
attr title "packets sent to upper layer, sum(packetBytes)"
scalar RoutingScenario.node[0].wlan[0].mac packetDrop:count 2
attr interpolationmode none
attr source packetDropped
attr title "packet drops, count"
scalar RoutingScenario.node[0].wlan[0].mac packetDrop:sum(packetBytes) 164
attr interpolationmode none
attr source packetDropped
attr title "packet drops, sum(packetBytes)"
scalar RoutingScenario.node[0].wlan[0].mac packetDropIncorrectlyReceived:count 2
attr interpolationmode none
attr source packetDropReasonIsIncorrectlyReceived(packetDropped)
attr title "packet drops: incorrectly received, count"
scalar RoutingScenario.node[0].wlan[0].mac packetDropIncorrectlyReceived:sum(packetBytes) 164
attr interpolationmode none
attr source packetDropReasonIsIncorrectlyReceived(packetDropped)
attr title "packet drops: incorrectly received, sum(packetBytes)"
scalar RoutingScenario.node[0].wlan[0].mac packetDropNotAddressedToUs:count 0
attr interpolationmode none
attr source packetDropReasonIsNotAddressedToUs(packetDropped)
attr title "packet drops: not addressed to us, count"
scalar RoutingScenario.node[0].wlan[0].mac packetDropNotAddressedToUs:sum(packetBytes) 0
attr interpolationmode none
attr source packetDropReasonIsNotAddressedToUs(packetDropped)
attr title "packet drops: not addressed to us, sum(packetBytes)"
scalar RoutingScenario.node[0].wlan[0].mac packetDropQueueOverflow:count 0
attr interpolationmode none
attr source packetDropReasonIsQueueOverflow(packetDropped)
attr title "packet drops: queue overflow, count"
scalar RoutingScenario.node[0].wlan[0].mac packetDropQueueOverflow:sum(packetBytes) 0
attr interpolationmode none
attr source packetDropReasonIsQueueOverflow(packetDropped)
attr title "packet drops: queue overflow, sum(packetBytes)"
scalar RoutingScenario.node[0].wlan[0].mac packetDropRetryLimitReached:count 0
attr interpolationmode none
attr source packetDropReasonIsRetryLimitReached(packetDropped)
attr title "packet drops: retry limit reached, count"
scalar RoutingScenario.node[0].wlan[0].mac packetDropRetryLimitReached:sum(packetBytes) 0
attr interpolationmode none
attr source packetDropReasonIsRetryLimitReached(packetDropped)
attr title "packet drops: retry limit reached, sum(packetBytes)"
scalar RoutingScenario.node[0].wlan[0].mac packetDropDuplicateDetected:count 0
attr interpolationmode none
attr source packetDropReasonIsDuplicateDetected(packetDropped)
attr title "packet drops: duplicate detected, count"
scalar RoutingScenario.node[0].wlan[0].mac packetDropDuplicateDetected:sum(packetBytes) 0
attr interpolationmode none
attr source packetDropReasonIsDuplicateDetected(packetDropped)
attr title "packet drops: duplicate detected, sum(packetBytes)"
scalar RoutingScenario.node[0].wlan[0].mac packetDropOther:count 0
attr interpolationmode none
attr source packetDropReasonIsOther(packetDropped)
attr title "packet drops: other, count"
scalar RoutingScenario.node[0].wlan[0].mac packetDropOther:sum(packetBytes) 0
attr interpolationmode none
attr source packetDropReasonIsOther(packetDropped)
attr title "packet drops: other, sum(packetBytes)"
scalar RoutingScenario.node[0].wlan[0].mac linkBroken:count 0
attr interpolationmode none
attr title "link breaks, count"
statistic RoutingScenario.node[0].wlan[0].radio radioChannel:histogram
field count 1
field mean 3
field stddev -nan
field min 3
field max 3
field sum 3
field sqrsum 9
attr interpolationmode sample-hold
attr source radioChannelChanged
attr title "Radio channel, histogram"
bin	-inf	0
bin	2	0
bin	3	1
bin	4	0
scalar RoutingScenario.node[0].wlan[0].radio radioMode:count 11
attr interpolationmode sample-hold
attr source radioModeChanged
attr title "Radio mode, count"
scalar RoutingScenario.node[0].wlan[0].radio receptionState:count 23
attr interpolationmode sample-hold
attr source receptionStateChanged
attr title "Radio reception state, count"
scalar RoutingScenario.node[0].wlan[0].radio transmissionState:count 16
attr interpolationmode sample-hold
attr source transmissionStateChanged
attr title "Radio transmission state, count"
statistic RoutingScenario.node[0].wlan[0].radio minSnir:histogram
field count 7
field mean 933.630186049
field stddev 2158.0311421364
field min 8.9022533749379
field max 5818.5241288891
field sum 6535.411302343
field sqrsum 34044247.732695
attr source minimumSnir(packetSentToUpper)
attr title "Min SNIR, histogram"
bin	-inf	0
bin	0	4
bin	100	0
bin	200	1
bin	300	1
bin	400	0
bin	500	0
bin	600	0
bin	700	0
bin	800	0
bin	900	0
bin	1000	0
bin	1100	0
bin	1200	0
bin	1300	0
bin	1400	0
bin	1500	0
bin	1600	0
bin	1700	0
bin	1800	0
bin	1900	0
bin	2000	0
bin	2100	0
bin	2200	0
bin	2300	0
bin	2400	0
bin	2500	0
bin	2600	0
bin	2700	0
bin	2800	0
bin	2900	0
bin	3000	0
bin	3100	0
bin	3200	0
bin	3300	0
bin	3400	0
bin	3500	0
bin	3600	0
bin	3700	0
bin	3800	0
bin	3900	0
bin	4000	0
bin	4100	0
bin	4200	0
bin	4300	0
bin	4400	0
bin	4500	0
bin	4600	0
bin	4700	0
bin	4800	0
bin	4900	0
bin	5000	0
bin	5100	0
bin	5200	0
bin	5300	0
bin	5400	0
bin	5500	0
bin	5600	0
bin	5700	0
bin	5800	1
bin	5900	0
bin	6000	0
bin	6100	0
bin	6200	0
bin	6300	0
bin	6400	0
bin	6500	0
bin	6600	0
bin	6700	0
bin	6800	0
bin	6900	0
bin	7000	0
bin	7100	0
bin	7200	0
bin	7300	0
statistic RoutingScenario.node[0].wlan[0].radio packetErrorRate:histogram
field count 7
field mean 0.2859127849602
field stddev 0.48781469953076
field min 0
field max 1
field sum 2.0013894947214
field sqrsum 2.0000019306956
attr source packetErrorRate(packetSentToUpper)
attr title "Packet error rate, histogram"
bin	-inf	0
bin	0	5
bin	0.02	0
bin	0.04	0
bin	0.06	0
bin	0.08	0
bin	0.1	0
bin	0.12	0
bin	0.14	0
bin	0.16	0
bin	0.18	0
bin	0.2	0
bin	0.22	0
bin	0.24	0
bin	0.26	0
bin	0.28	0
bin	0.3	0
bin	0.32	0
bin	0.34	0
bin	0.36	0
bin	0.38	0
bin	0.4	0
bin	0.42	0
bin	0.44	0
bin	0.46	0
bin	0.48	0
bin	0.5	0
bin	0.52	0
bin	0.54	0
bin	0.56	0
bin	0.58	0
bin	0.6	0
bin	0.62	0
bin	0.64	0
bin	0.66	0
bin	0.68	0
bin	0.7	0
bin	0.72	0
bin	0.74	0
bin	0.76	0
bin	0.78	0
bin	0.8	0
bin	0.82	0
bin	0.84	0
bin	0.86	0
bin	0.88	0
bin	0.9	0
bin	0.92	0
bin	0.94	0
bin	0.96	0
bin	0.98	0
bin	1	2
bin	1.02	0
bin	1.04	0
bin	1.06	0
bin	1.08	0
bin	1.1	0
bin	1.12	0
bin	1.14	0
bin	1.16	0
bin	1.18	0
bin	1.2	0
bin	1.22	0
bin	1.24	0
bin	1.26	0
statistic RoutingScenario.node[0].wlan[0].radio bitErrorRate:histogram
field count 0
field mean -nan
field stddev nan
field min nan
field max nan
field sum 0
field sqrsum 0
attr source bitErrorRate(packetSentToUpper)
attr title "Bit error rate, histogram"
bin	-inf	0
bin	0	0
bin	1	0
statistic RoutingScenario.node[0].wlan[0].radio symbolErrorRate:histogram
field count 0
field mean -nan
field stddev nan
field min nan
field max nan
field sum 0
field sqrsum 0
attr source symbolErrorRate(packetSentToUpper)
attr title "Symbol error rate, histogram"
bin	-inf	0
bin	0	0
bin	1	0
scalar RoutingScenario.node[0].ipv4.ip packetDropAddressResolutionFailed:count 0
attr interpolationmode none
attr source packetDropReasonIsAddressResolutionFailed(packetDropped)
attr title "packet drop: address resolution failed, count"
scalar RoutingScenario.node[0].ipv4.ip packetDropAddressResolutionFailed:sum(packetBytes) 0
attr interpolationmode none
attr source packetDropReasonIsAddressResolutionFailed(packetDropped)
attr title "packet drop: address resolution failed, sum(packetBytes)"
scalar RoutingScenario.node[0].ipv4.ip packetDropHopLimitReached:count 0
attr interpolationmode none
attr source packetDropReasonIsHopLimitReached(packetDropped)
attr title "packet drop: hop limit reached, count"
scalar RoutingScenario.node[0].ipv4.ip packetDropHopLimitReached:sum(packetBytes) 0
attr interpolationmode none
attr source packetDropReasonIsHopLimitReached(packetDropped)
attr title "packet drop: hop limit reached, sum(packetBytes)"
scalar RoutingScenario.node[0].ipv4.ip packetDropForwardingDisabled:count 0
attr interpolationmode none
attr source packetDropReasonIsForwardingDisabled(packetDropped)
attr title "packet drop: forwarding disabled, count"
scalar RoutingScenario.node[0].ipv4.ip packetDropForwardingDisabled:sum(packetBytes) 0
attr interpolationmode none
attr source packetDropReasonIsForwardingDisabled(packetDropped)
attr title "packet drop: forwarding disabled, sum(packetBytes)"
scalar RoutingScenario.node[0].ipv4.ip packetDropNoInterfaceFound:count 0
attr interpolationmode none
attr source packetDropReasonIsNoInterfaceFound(packetDropped)
attr title "packet drop: no interface found, count"
scalar RoutingScenario.node[0].ipv4.ip packetDropNoInterfaceFound:sum(packetBytes) 0
attr interpolationmode none
attr source packetDropReasonIsNoInterfaceFound(packetDropped)
attr title "packet drop: no interface found, sum(packetBytes)"
scalar RoutingScenario.node[0].ipv4.ip packetDropNoRouteFound:count 0
attr interpolationmode none
attr source packetDropReasonIsNoRouteFound(packetDropped)
attr title "packet drop: no route found, count"
scalar RoutingScenario.node[0].ipv4.ip packetDropNoRouteFound:sum(packetBytes) 0
attr interpolationmode none
attr source packetDropReasonIsNoRouteFound(packetDropped)
attr title "packet drop: no route found, sum(packetBytes)"
scalar RoutingScenario.node[0].ipv4.ip packetDropUndefined:count 0
attr interpolationmode none
attr source packetDropReasonIsUndefined(packetDropped)
attr title "packet drop: undefined, count"
scalar RoutingScenario.node[0].ipv4.ip packetDropUndefined:sum(packetBytes) 0
attr interpolationmode none
attr source packetDropReasonIsUndefined(packetDropped)
attr title "packet drop: undefined, sum(packetBytes)"
scalar RoutingScenario.node[0].ipv4.arp arpResolutionFailed:count 0
attr title "ARP failed resolutions, count"
scalar RoutingScenario.node[0].ipv4.arp arpResolutionCompleted:count 1
attr title "ARP completed resolutions, count"
scalar RoutingScenario.node[0].ipv4.arp arpResolutionInitiated:count 2
attr title "ARP initiated resolutions, count"
scalar RoutingScenario.node[0].ipv4.arp arpReplySent:count 0
attr source arpReplySent
attr title "ARP replies sent, count"
scalar RoutingScenario.node[0].ipv4.arp arpReplySent:sum(packetBytes) 0
attr source arpReplySent
attr title "ARP replies sent, sum(packetBytes)"
scalar RoutingScenario.node[0].ipv4.arp arpRequestSent:count 2
attr source arpRequestSent
attr title "ARP request sent, count"
scalar RoutingScenario.node[0].ipv4.arp arpRequestSent:sum(packetBytes) 56
attr source arpRequestSent
attr title "ARP request sent, sum(packetBytes)"
scalar RoutingScenario.node[0].udp packetReceived:count 76
attr interpolationmode none
attr source packetReceived
attr title "packets received, count"
scalar RoutingScenario.node[0].udp packetReceived:sum(packetBytes) 73680
attr interpolationmode none
attr source packetReceived
attr title "packets received, sum(packetBytes)"
scalar RoutingScenario.node[0].udp packetSent:count 75
attr interpolationmode none
attr source packetSent
attr title "packets sent, count"
scalar RoutingScenario.node[0].udp packetSent:sum(packetBytes) 73640
attr interpolationmode none
attr source packetSent
attr title "packets sent, sum(packetBytes)"
scalar RoutingScenario.node[0].udp passedUpPk:count 3
attr interpolationmode none
attr source packetSentToUpper
attr title "packets passed up, count"
scalar RoutingScenario.node[0].udp droppedPkWrongPort:count 73
attr interpolationmode none
attr source packetDropReasonIsNoPortFound(packetDropped)
attr title "packets dropped (wrong port), count"
scalar RoutingScenario.node[0].udp droppedPkBadChecksum:count 0
attr interpolationmode none
attr source packetDropReasonIsIncorrectlyReceived(packetDropped)
attr title "packets dropped (checksum error), count"
scalar RoutingScenario.node[0].app[0] "packets sent" 73
scalar RoutingScenario.node[0].app[0] "packets received" 0
scalar RoutingScenario.node[0].app[0] packetReceived:count 0
attr interpolationmode none
attr source packetReceived
attr title "packets received, count"
scalar RoutingScenario.node[0].app[0] packetReceived:sum(packetBytes) 0
attr interpolationmode none
attr source packetReceived
attr title "packets received, sum(packetBytes)"
statistic RoutingScenario.node[0].app[0] rcvdPkLifetime:stats
field count 0
field mean -nan
field stddev nan
field min nan
field max nan
field sum 0
field sqrsum 0
attr interpolationmode none
attr source dataAge(packetReceived)
attr title "received packet lifetime, stats"
attr unit s
scalar RoutingScenario.node[0].app[0] packetSent:count 73
attr interpolationmode none
attr source packetSent
attr title "packets sent, count"
scalar RoutingScenario.node[0].app[0] packetSent:sum(packetBytes) 73000
attr interpolationmode none
attr source packetSent
attr title "packets sent, sum(packetBytes)"
scalar RoutingScenario.node[1].lo[0].lo rcvdPkFromHl:count 0
attr interpolationmode none
attr source packetReceivedFromUpper
attr title "packets received from higher layer, count"
scalar RoutingScenario.node[1].lo[0].lo rcvdPkFromHl:sum(packetBytes) 0
attr interpolationmode none
attr source packetReceivedFromUpper
attr title "packets received from higher layer, sum(packetBytes)"
scalar RoutingScenario.node[1].lo[0].lo passedUpPk:count 0
attr interpolationmode none
attr source packetSentToUpper
attr title "packets passed to higher layer, count"
scalar RoutingScenario.node[1].lo[0].lo passedUpPk:sum(packetBytes) 0
attr interpolationmode none
attr source packetSentToUpper
attr title "packets passed to higher layer, sum(packetBytes)"
scalar RoutingScenario.node[1].wlan[0].mac.dcf.channelAccess.pendingQueue packetPopped:count 3
attr interpolationmode none
attr title "packet popped, count"
scalar RoutingScenario.node[1].wlan[0].mac.dcf.channelAccess.pendingQueue packetPopped:sum(packetBytes) 246
attr interpolationmode none
attr title "packet popped, sum(packetBytes)"
statistic RoutingScenario.node[1].wlan[0].mac.dcf.channelAccess.pendingQueue queueingTime:histogram
field count 3
field mean 0.00024897808533333
field stddev 2.0024885381644e-05
field min 0.000234805817
field max 0.000271886866
field sum 0.000746934256
field sqrsum 1.8677225299785e-07
attr interpolationmode none
attr source queueingTime(packetPopped)
attr title "queueing times, histogram"
attr unit s
bin	-inf	0
bin	0.000225	0
bin	0.000226	0
bin	0.000227	0
bin	0.000228	0
bin	0.000229	0
bin	0.00023	0
bin	0.000231	0
bin	0.000232	0
bin	0.000233	0
bin	0.000234	1
bin	0.000235	0
bin	0.000236	0
bin	0.000237	0
bin	0.000238	0
bin	0.000239	0
bin	0.00024	1
bin	0.000241	0
bin	0.000242	0
bin	0.000243	0
bin	0.000244	0
bin	0.000245	0
bin	0.000246	0
bin	0.000247	0
bin	0.000248	0
bin	0.000249	0
bin	0.00025	0
bin	0.000251	0
bin	0.000252	0
bin	0.000253	0
bin	0.000254	0
bin	0.000255	0
bin	0.000256	0
bin	0.000257	0
bin	0.000258	0
bin	0.000259	0
bin	0.00026	0
bin	0.000261	0
bin	0.000262	0
bin	0.000263	0
bin	0.000264	0
bin	0.000265	0
bin	0.000266	0
bin	0.000267	0
bin	0.000268	0
bin	0.000269	0
bin	0.00027	0
bin	0.000271	1
bin	0.000272	0
bin	0.000273	0
bin	0.000274	0
bin	0.000275	0
bin	0.000276	0
bin	0.000277	0
bin	0.000278	0
bin	0.000279	0
bin	0.00028	0
bin	0.000281	0
bin	0.000282	0
scalar RoutingScenario.node[1].wlan[0].mac.dcf.channelAccess.pendingQueue queueLength:max 1
attr interpolationmode sample-hold
attr source "count(packetPushed) - count(packetPopped) - count(packetRemoved) - count(packetDropped)"
attr title "queue length, max"
scalar RoutingScenario.node[1].wlan[0].mac.dcf.channelAccess.pendingQueue queueLength:timeavg 0.00090709632889561
attr interpolationmode sample-hold
attr source "count(packetPushed) - count(packetPopped) - count(packetRemoved) - count(packetDropped)"
attr title "queue length, timeavg"
scalar RoutingScenario.node[1].wlan[0].mac.dcf.channelAccess.pendingQueue packetPushed:count 3
attr interpolationmode none
attr title "packet pushed, count"
scalar RoutingScenario.node[1].wlan[0].mac.dcf.channelAccess.pendingQueue packetPushed:sum(packetBytes) 246
attr interpolationmode none
attr title "packet pushed, sum(packetBytes)"
scalar RoutingScenario.node[1].wlan[0].mac.dcf.channelAccess.pendingQueue packetDropQueueOverflow:count 0
attr interpolationmode none
attr source packetDropReasonIsQueueOverflow(packetDropped)
attr title "packet drops: queue overflow, count"
scalar RoutingScenario.node[1].wlan[0].mac.dcf.channelAccess.pendingQueue packetDropQueueOverflow:sum(packetBytes) 0
attr interpolationmode none
attr source packetDropReasonIsQueueOverflow(packetDropped)
attr title "packet drops: queue overflow, sum(packetBytes)"
scalar RoutingScenario.node[1].wlan[0].mac.dcf.channelAccess.pendingQueue packetRemoved:count 0
attr interpolationmode none
attr title "packets removed, count"
scalar RoutingScenario.node[1].wlan[0].mac.dcf.channelAccess.pendingQueue packetRemoved:sum(packetBytes) 0
attr interpolationmode none
attr title "packets removed, sum(packetBytes)"
statistic RoutingScenario.node[1].wlan[0].mac.dcf.channelAccess.inProgressFrames queueingTime:histogram
field count 3
field mean 0.000104
field stddev 0
field min 0.000104
field max 0.000104
field sum 0.000312
field sqrsum 3.2448e-08
attr interpolationmode none
attr source queueingTime(packetDequeued)
attr title "queueing times, histogram"
bin	-inf	0
bin	0	3
bin	0.01	0
bin	0.02	0
bin	0.03	0
bin	0.04	0
bin	0.05	0
bin	0.06	0
bin	0.07	0
bin	0.08	0
bin	0.09	0
bin	0.1	0
bin	0.11	0
bin	0.12	0
bin	0.13	0
bin	0.14	0
bin	0.15	0
bin	0.16	0
bin	0.17	0
bin	0.18	0
bin	0.19	0
bin	0.2	0
bin	0.21	0
bin	0.22	0
bin	0.23	0
bin	0.24	0
bin	0.25	0
bin	0.26	0
bin	0.27	0
bin	0.28	0
bin	0.29	0
bin	0.3	0
bin	0.31	0
bin	0.32	0
bin	0.33	0
bin	0.34	0
bin	0.35	0
bin	0.36	0
bin	0.37	0
bin	0.38	0
bin	0.39	0
bin	0.4	0
bin	0.41	0
bin	0.42	0
bin	0.43	0
bin	0.44	0
bin	0.45	0
bin	0.46	0
bin	0.47	0
bin	0.48	0
bin	0.49	0
bin	0.5	0
bin	0.51	0
scalar RoutingScenario.node[1].wlan[0].mac.dcf.channelAccess.inProgressFrames queueLength:max 1
attr interpolationmode sample-hold
attr source "count(packetEnqueued) - count(packetDequeued)"
attr title "queue length, max"
scalar RoutingScenario.node[1].wlan[0].mac.dcf.channelAccess.inProgressFrames queueLength:timeavg 0.00037900896635492
attr interpolationmode sample-hold
attr source "count(packetEnqueued) - count(packetDequeued)"
attr title "queue length, timeavg"
scalar RoutingScenario.node[1].wlan[0].mac.dcf.channelAccess.contention channelAccessGranted:count 3
attr title "channel access granted, count"
scalar RoutingScenario.node[1].wlan[0].mac.dcf.channelAccess.contention stateChanged:count 1916
attr interpolationmode none
attr title "contention state changed, count"
scalar RoutingScenario.node[1].wlan[0].mac.dcf.channelAccess channelOwnershipChanged:count 6
attr interpolationmode sample-hold
attr title "channel ownership, count"
scalar RoutingScenario.node[1].wlan[0].mac.dcf.originatorMacDataService packetAggregated:count 0
attr title "packets aggregated, count"
scalar RoutingScenario.node[1].wlan[0].mac.dcf.originatorMacDataService packetFragmented:count 0
attr title "packets fragmented, count"
scalar RoutingScenario.node[1].wlan[0].mac.dcf.recipientMacDataService packetDeaggregated:count 0
attr title "packets deaggregated, count"
scalar RoutingScenario.node[1].wlan[0].mac.dcf.recipientMacDataService packetDefragmented:count 90
attr title "packets defragmented, count"
scalar RoutingScenario.node[1].wlan[0].mac.dcf.recipientMacDataService packetDropDuplicateDetected:count 0
attr interpolationmode none
attr source packetDropReasonIsDuplicateDetected(packetDropped)
attr title "packet drops: duplicate detected, count"
scalar RoutingScenario.node[1].wlan[0].mac.dcf.recipientMacDataService packetDropDuplicateDetected:sum(packetBytes) 0
attr interpolationmode none
attr source packetDropReasonIsDuplicateDetected(packetDropped)
attr title "packet drops: duplicate detected, sum(packetBytes)"
scalar RoutingScenario.node[1].wlan[0].mac.dcf.recoveryProcedure retryLimitReached:count 0
attr title "retry limit reached, count"
scalar RoutingScenario.node[1].wlan[0].mac.dcf frameSequenceFinished:count 3
attr title "finished frame sequences, count"
statistic RoutingScenario.node[1].wlan[0].mac.dcf frameSequenceDuration:histogram
field count 3
field mean 0.000104
field stddev 0
field min 0.000104
field max 0.000104
field sum 0.000312
field sqrsum 3.2448e-08
attr source frameSequenceDuration(frameSequenceFinished)
attr title "frame sequence durations, histogram"
bin	-inf	0
bin	0	3
bin	0.01	0
bin	0.02	0
bin	0.03	0
bin	0.04	0
bin	0.05	0
bin	0.06	0
bin	0.07	0
bin	0.08	0
bin	0.09	0
bin	0.1	0
bin	0.11	0
bin	0.12	0
bin	0.13	0
bin	0.14	0
bin	0.15	0
bin	0.16	0
bin	0.17	0
bin	0.18	0
bin	0.19	0
bin	0.2	0
bin	0.21	0
bin	0.22	0
bin	0.23	0
bin	0.24	0
bin	0.25	0
bin	0.26	0
bin	0.27	0
bin	0.28	0
bin	0.29	0
bin	0.3	0
bin	0.31	0
bin	0.32	0
bin	0.33	0
bin	0.34	0
bin	0.35	0
bin	0.36	0
bin	0.37	0
bin	0.38	0
bin	0.39	0
bin	0.4	0
bin	0.41	0
bin	0.42	0
bin	0.43	0
bin	0.44	0
bin	0.45	0
bin	0.46	0
bin	0.47	0
bin	0.48	0
bin	0.49	0
bin	0.5	0
bin	0.51	0
statistic RoutingScenario.node[1].wlan[0].mac.dcf frameSequenceNumPackets:histogram
field count 3
field mean 1
field stddev 0
field min 1
field max 1
field sum 3
field sqrsum 3
attr source frameSequenceNumPackets(frameSequenceFinished)
attr title "frame sequences: number of packets, histogram"
bin	-inf	0
bin	0	0
bin	1	3
bin	2	0
scalar RoutingScenario.node[1].wlan[0].mac.dcf packetReceivedFromPeer:count 90
attr interpolationmode none
attr title "packets received, count"
scalar RoutingScenario.node[1].wlan[0].mac.dcf packetReceivedFromPeer:sum(packetBytes) 7380
attr interpolationmode none
attr title "packets received, sum(packetBytes)"
scalar RoutingScenario.node[1].wlan[0].mac.dcf packetReceivedFromPeerUnicast:count 0
attr interpolationmode none
attr source ieee80211Unicast(packetReceivedFromPeer)
attr title "packets received: unicast, count"
scalar RoutingScenario.node[1].wlan[0].mac.dcf packetReceivedFromPeerUnicast:sum(packetBytes) 0
attr interpolationmode none
attr source ieee80211Unicast(packetReceivedFromPeer)
attr title "packets received: unicast, sum(packetBytes)"
scalar RoutingScenario.node[1].wlan[0].mac.dcf packetReceivedFromPeerMulticast:count 90
attr interpolationmode none
attr source ieee80211Multicast(packetReceivedFromPeer)
attr title "packets received: multicast, count"
scalar RoutingScenario.node[1].wlan[0].mac.dcf packetReceivedFromPeerMulticast:sum(packetBytes) 7380
attr interpolationmode none
attr source ieee80211Multicast(packetReceivedFromPeer)
attr title "packets received: multicast, sum(packetBytes)"
scalar RoutingScenario.node[1].wlan[0].mac.dcf packetReceivedFromPeerBroadcast:count 90
attr interpolationmode none
attr source ieee80211Broadcast(packetReceivedFromPeer)
attr title "packets received: broadcast, count"
scalar RoutingScenario.node[1].wlan[0].mac.dcf packetReceivedFromPeerBroadcast:sum(packetBytes) 7380
attr interpolationmode none
attr source ieee80211Broadcast(packetReceivedFromPeer)
attr title "packets received: broadcast, sum(packetBytes)"
scalar RoutingScenario.node[1].wlan[0].mac.dcf packetReceivedFromPeerWithRetry:count 0
attr interpolationmode none
attr source ieee80211Retry(packetReceivedFromPeer)
attr title "packets received: with retry, count"
scalar RoutingScenario.node[1].wlan[0].mac.dcf packetReceivedFromPeerWithRetry:sum(packetBytes) 0
attr interpolationmode none
attr source ieee80211Retry(packetReceivedFromPeer)
attr title "packets received: with retry, sum(packetBytes)"
scalar RoutingScenario.node[1].wlan[0].mac.dcf packetReceivedFromPeerWithoutRetry:count 90
attr interpolationmode none
attr source ieee80211NotRetry(packetReceivedFromPeer)
attr title "packets received: without retry, count"
scalar RoutingScenario.node[1].wlan[0].mac.dcf packetReceivedFromPeerWithoutRetry:sum(packetBytes) 7380
attr interpolationmode none
attr source ieee80211NotRetry(packetReceivedFromPeer)
attr title "packets received: without retry, sum(packetBytes)"
scalar RoutingScenario.node[1].wlan[0].mac.dcf packetSentToPeer:count 3
attr interpolationmode none
attr title "packets sent, count"
scalar RoutingScenario.node[1].wlan[0].mac.dcf packetSentToPeer:sum(packetBytes) 246
attr interpolationmode none
attr title "packets sent, sum(packetBytes)"
scalar RoutingScenario.node[1].wlan[0].mac.dcf packetSentToPeerUnicast:count 0
attr interpolationmode none
attr source ieee80211Unicast(packetSentToPeer)
attr title "packets sent: unicast, count"
scalar RoutingScenario.node[1].wlan[0].mac.dcf packetSentToPeerUnicast:sum(packetBytes) 0
attr interpolationmode none
attr source ieee80211Unicast(packetSentToPeer)
attr title "packets sent: unicast, sum(packetBytes)"
scalar RoutingScenario.node[1].wlan[0].mac.dcf packetSentToPeerMulticast:count 3
attr interpolationmode none
attr source ieee80211Multicast(packetSentToPeer)
attr title "packets sent: multicast, count"
scalar RoutingScenario.node[1].wlan[0].mac.dcf packetSentToPeerMulticast:sum(packetBytes) 246
attr interpolationmode none
attr source ieee80211Multicast(packetSentToPeer)
attr title "packets sent: multicast, sum(packetBytes)"
scalar RoutingScenario.node[1].wlan[0].mac.dcf packetSentToPeerBroadcast:count 3
attr interpolationmode none
attr source ieee80211Broadcast(packetSentToPeer)
attr title "packets sent: broadcast , count"
scalar RoutingScenario.node[1].wlan[0].mac.dcf packetSentToPeerBroadcast:sum(packetBytes) 246
attr interpolationmode none
attr source ieee80211Broadcast(packetSentToPeer)
attr title "packets sent: broadcast , sum(packetBytes)"
scalar RoutingScenario.node[1].wlan[0].mac.dcf packetSentToPeerWithRetry:count 0
attr interpolationmode none
attr source ieee80211Retry(packetSentToPeer)
attr title "packets sent: with retry, count"
scalar RoutingScenario.node[1].wlan[0].mac.dcf packetSentToPeerWithRetry:sum(packetBytes) 0
attr interpolationmode none
attr source ieee80211Retry(packetSentToPeer)
attr title "packets sent: with retry, sum(packetBytes)"
scalar RoutingScenario.node[1].wlan[0].mac.dcf packetSentToPeerWithoutRetry:count 3
attr interpolationmode none
attr source ieee80211NotRetry(packetSentToPeer)
attr title "packets sent: without retry, count"
scalar RoutingScenario.node[1].wlan[0].mac.dcf packetSentToPeerWithoutRetry:sum(packetBytes) 246
attr interpolationmode none
attr source ieee80211NotRetry(packetSentToPeer)
attr title "packets sent: without retry, sum(packetBytes)"
scalar RoutingScenario.node[1].wlan[0].mac.dcf packetDrop:count 0
attr interpolationmode none
attr source packetDropped
attr title "packet drops, count"
scalar RoutingScenario.node[1].wlan[0].mac.dcf packetDrop:sum(packetBytes) 0
attr interpolationmode none
attr source packetDropped
attr title "packet drops, sum(packetBytes)"
scalar RoutingScenario.node[1].wlan[0].mac.dcf packetDropNotAddressedToUs:count 0
attr interpolationmode none
attr source packetDropReasonIsNotAddressedToUs(packetDropped)
attr title "packet drops: not addressed to us, count"
scalar RoutingScenario.node[1].wlan[0].mac.dcf packetDropNotAddressedToUs:sum(packetBytes) 0
attr interpolationmode none
attr source packetDropReasonIsNotAddressedToUs(packetDropped)
attr title "packet drops: not addressed to us, sum(packetBytes)"
scalar RoutingScenario.node[1].wlan[0].mac.dcf packetDropQueueOverflow:count 0
attr interpolationmode none
attr source packetDropReasonIsQueueOverflow(packetDropped)
attr title "packet drops: queue overflow, count"
scalar RoutingScenario.node[1].wlan[0].mac.dcf packetDropQueueOverflow:sum(packetBytes) 0
attr interpolationmode none
attr source packetDropReasonIsQueueOverflow(packetDropped)
attr title "packet drops: queue overflow, sum(packetBytes)"
scalar RoutingScenario.node[1].wlan[0].mac.dcf packetDropRetryLimitReached:count 0
attr interpolationmode none
attr source packetDropReasonIsRetryLimitReached(packetDropped)
attr title "packet drops: retry limit reached, count"
scalar RoutingScenario.node[1].wlan[0].mac.dcf packetDropRetryLimitReached:sum(packetBytes) 0
attr interpolationmode none
attr source packetDropReasonIsRetryLimitReached(packetDropped)
attr title "packet drops: retry limit reached, sum(packetBytes)"
scalar RoutingScenario.node[1].wlan[0].mac.dcf linkBroken:count 0
attr interpolationmode none
attr title "link breaks, count"
scalar RoutingScenario.node[1].wlan[0].mac packetReceivedFromLower:count 345
attr interpolationmode none
attr title "packets received from lower layer, count"
scalar RoutingScenario.node[1].wlan[0].mac packetReceivedFromLower:sum(packetBytes) 28290
attr interpolationmode none
attr title "packets received from lower layer, sum(packetBytes)"
scalar RoutingScenario.node[1].wlan[0].mac packetSentToLower:count 3
attr interpolationmode none
attr title "packets sent to lower layer, count"
scalar RoutingScenario.node[1].wlan[0].mac packetSentToLower:sum(packetBytes) 246
attr interpolationmode none
attr title "packets sent to lower layer, sum(packetBytes)"
scalar RoutingScenario.node[1].wlan[0].mac packetReceivedFromUpper:count 3
attr interpolationmode none
attr title "packets received from upper layer, count"
scalar RoutingScenario.node[1].wlan[0].mac packetReceivedFromUpper:sum(packetBytes) 162
attr interpolationmode none
attr title "packets received from upper layer, sum(packetBytes)"
scalar RoutingScenario.node[1].wlan[0].mac packetSentToUpper:count 90
attr interpolationmode none
attr title "packets sent to upper layer, count"
scalar RoutingScenario.node[1].wlan[0].mac packetSentToUpper:sum(packetBytes) 4860
attr interpolationmode none
attr title "packets sent to upper layer, sum(packetBytes)"
scalar RoutingScenario.node[1].wlan[0].mac packetDrop:count 255
attr interpolationmode none
attr source packetDropped
attr title "packet drops, count"
scalar RoutingScenario.node[1].wlan[0].mac packetDrop:sum(packetBytes) 20910
attr interpolationmode none
attr source packetDropped
attr title "packet drops, sum(packetBytes)"
scalar RoutingScenario.node[1].wlan[0].mac packetDropIncorrectlyReceived:count 255
attr interpolationmode none
attr source packetDropReasonIsIncorrectlyReceived(packetDropped)
attr title "packet drops: incorrectly received, count"
scalar RoutingScenario.node[1].wlan[0].mac packetDropIncorrectlyReceived:sum(packetBytes) 20910
attr interpolationmode none
attr source packetDropReasonIsIncorrectlyReceived(packetDropped)
attr title "packet drops: incorrectly received, sum(packetBytes)"
scalar RoutingScenario.node[1].wlan[0].mac packetDropNotAddressedToUs:count 0
attr interpolationmode none
attr source packetDropReasonIsNotAddressedToUs(packetDropped)
attr title "packet drops: not addressed to us, count"
scalar RoutingScenario.node[1].wlan[0].mac packetDropNotAddressedToUs:sum(packetBytes) 0
attr interpolationmode none
attr source packetDropReasonIsNotAddressedToUs(packetDropped)
attr title "packet drops: not addressed to us, sum(packetBytes)"
scalar RoutingScenario.node[1].wlan[0].mac packetDropQueueOverflow:count 0
attr interpolationmode none
attr source packetDropReasonIsQueueOverflow(packetDropped)
attr title "packet drops: queue overflow, count"
scalar RoutingScenario.node[1].wlan[0].mac packetDropQueueOverflow:sum(packetBytes) 0
attr interpolationmode none
attr source packetDropReasonIsQueueOverflow(packetDropped)
attr title "packet drops: queue overflow, sum(packetBytes)"
scalar RoutingScenario.node[1].wlan[0].mac packetDropRetryLimitReached:count 0
attr interpolationmode none
attr source packetDropReasonIsRetryLimitReached(packetDropped)
attr title "packet drops: retry limit reached, count"
scalar RoutingScenario.node[1].wlan[0].mac packetDropRetryLimitReached:sum(packetBytes) 0
attr interpolationmode none
attr source packetDropReasonIsRetryLimitReached(packetDropped)
attr title "packet drops: retry limit reached, sum(packetBytes)"
scalar RoutingScenario.node[1].wlan[0].mac packetDropDuplicateDetected:count 0
attr interpolationmode none
attr source packetDropReasonIsDuplicateDetected(packetDropped)
attr title "packet drops: duplicate detected, count"
scalar RoutingScenario.node[1].wlan[0].mac packetDropDuplicateDetected:sum(packetBytes) 0
attr interpolationmode none
attr source packetDropReasonIsDuplicateDetected(packetDropped)
attr title "packet drops: duplicate detected, sum(packetBytes)"
scalar RoutingScenario.node[1].wlan[0].mac packetDropOther:count 0
attr interpolationmode none
attr source packetDropReasonIsOther(packetDropped)
attr title "packet drops: other, count"
scalar RoutingScenario.node[1].wlan[0].mac packetDropOther:sum(packetBytes) 0
attr interpolationmode none
attr source packetDropReasonIsOther(packetDropped)
attr title "packet drops: other, sum(packetBytes)"
scalar RoutingScenario.node[1].wlan[0].mac linkBroken:count 0
attr interpolationmode none
attr title "link breaks, count"
statistic RoutingScenario.node[1].wlan[0].radio radioChannel:histogram
field count 1
field mean 3
field stddev -nan
field min 3
field max 3
field sum 3
field sqrsum 9
attr interpolationmode sample-hold
attr source radioChannelChanged
attr title "Radio channel, histogram"
bin	-inf	0
bin	2	0
bin	3	1
bin	4	0
scalar RoutingScenario.node[1].wlan[0].radio radioMode:count 9
attr interpolationmode sample-hold
attr source radioModeChanged
attr title "Radio mode, count"
scalar RoutingScenario.node[1].wlan[0].radio receptionState:count 698
attr interpolationmode sample-hold
attr source receptionStateChanged
attr title "Radio reception state, count"
scalar RoutingScenario.node[1].wlan[0].radio transmissionState:count 12
attr interpolationmode sample-hold
attr source transmissionStateChanged
attr title "Radio transmission state, count"
statistic RoutingScenario.node[1].wlan[0].radio minSnir:histogram
field count 345
field mean 128.10436583474
field stddev 203.41751808834
field min 0.10177119783002
field max 803.56645364589
field sum 44196.006212987
field sqrsum 19895969.56118
attr source minimumSnir(packetSentToUpper)
attr title "Min SNIR, histogram"
bin	-inf	0
bin	0	8
bin	10	248
bin	20	1
bin	30	0
bin	40	1
bin	50	0
bin	60	0
bin	70	0
bin	80	0
bin	90	0
bin	100	1
bin	110	0
bin	120	0
bin	130	0
bin	140	0
bin	150	0
bin	160	0
bin	170	0
bin	180	0
bin	190	0
bin	200	0
bin	210	0
bin	220	0
bin	230	0
bin	240	0
bin	250	0
bin	260	0
bin	270	0
bin	280	0
bin	290	0
bin	300	0
bin	310	0
bin	320	0
bin	330	0
bin	340	0
bin	350	0
bin	360	0
bin	370	0
bin	380	0
bin	390	0
bin	400	0
bin	410	0
bin	420	0
bin	430	0
bin	440	0
bin	450	0
bin	460	0
bin	470	85
bin	480	0
bin	490	0
bin	500	0
bin	510	0
bin	520	0
bin	530	0
bin	540	0
bin	550	0
bin	560	0
bin	570	0
bin	580	0
bin	590	0
bin	600	0
bin	610	0
bin	620	0
bin	630	0
bin	640	0
bin	650	0
bin	660	0
bin	670	0
bin	680	0
bin	690	0
bin	700	0
bin	710	0
bin	720	0
bin	730	0
bin	740	0
bin	750	0
bin	760	0
bin	770	0
bin	780	0
bin	790	0
bin	800	1
bin	810	0
statistic RoutingScenario.node[1].wlan[0].radio packetErrorRate:histogram
field count 345
field mean 0.73726900381693
field stddev 0.43984325496982
field min 0
field max 1
field sum 254.35780631684
field sqrsum 254.08108507248
attr source packetErrorRate(packetSentToUpper)
attr title "Packet error rate, histogram"
bin	-inf	0
bin	0	89
bin	0.02	0
bin	0.04	0
bin	0.06	0
bin	0.08	1
bin	0.1	0
bin	0.12	0
bin	0.14	0
bin	0.16	0
bin	0.18	0
bin	0.2	0
bin	0.22	0
bin	0.24	0
bin	0.26	1
bin	0.28	0
bin	0.3	0
bin	0.32	0
bin	0.34	0
bin	0.36	0
bin	0.38	0
bin	0.4	0
bin	0.42	0
bin	0.44	0
bin	0.46	0
bin	0.48	0
bin	0.5	0
bin	0.52	0
bin	0.54	0
bin	0.56	0
bin	0.58	0
bin	0.6	0
bin	0.62	0
bin	0.64	0
bin	0.66	0
bin	0.68	0
bin	0.7	0
bin	0.72	0
bin	0.74	0
bin	0.76	0
bin	0.78	0
bin	0.8	0
bin	0.82	0
bin	0.84	0
bin	0.86	0
bin	0.88	0
bin	0.9	0
bin	0.92	0
bin	0.94	0
bin	0.96	0
bin	0.98	0
bin	1	254
bin	1.02	0
bin	1.04	0
bin	1.06	0
bin	1.08	0
bin	1.1	0
bin	1.12	0
bin	1.14	0
bin	1.16	0
bin	1.18	0
bin	1.2	0
bin	1.22	0
bin	1.24	0
bin	1.26	0
statistic RoutingScenario.node[1].wlan[0].radio bitErrorRate:histogram
field count 0
field mean -nan
field stddev nan
field min nan
field max nan
field sum 0
field sqrsum 0
attr source bitErrorRate(packetSentToUpper)
attr title "Bit error rate, histogram"
bin	-inf	0
bin	0	0
bin	1	0
statistic RoutingScenario.node[1].wlan[0].radio symbolErrorRate:histogram
field count 0
field mean -nan
field stddev nan
field min nan
field max nan
field sum 0
field sqrsum 0
attr source symbolErrorRate(packetSentToUpper)
attr title "Symbol error rate, histogram"
bin	-inf	0
bin	0	0
bin	1	0
scalar RoutingScenario.node[1].ipv4.ip packetDropAddressResolutionFailed:count 0
attr interpolationmode none
attr source packetDropReasonIsAddressResolutionFailed(packetDropped)
attr title "packet drop: address resolution failed, count"
scalar RoutingScenario.node[1].ipv4.ip packetDropAddressResolutionFailed:sum(packetBytes) 0
attr interpolationmode none
attr source packetDropReasonIsAddressResolutionFailed(packetDropped)
attr title "packet drop: address resolution failed, sum(packetBytes)"
scalar RoutingScenario.node[1].ipv4.ip packetDropHopLimitReached:count 0
attr interpolationmode none
attr source packetDropReasonIsHopLimitReached(packetDropped)
attr title "packet drop: hop limit reached, count"
scalar RoutingScenario.node[1].ipv4.ip packetDropHopLimitReached:sum(packetBytes) 0
attr interpolationmode none
attr source packetDropReasonIsHopLimitReached(packetDropped)
attr title "packet drop: hop limit reached, sum(packetBytes)"
scalar RoutingScenario.node[1].ipv4.ip packetDropForwardingDisabled:count 0
attr interpolationmode none
attr source packetDropReasonIsForwardingDisabled(packetDropped)
attr title "packet drop: forwarding disabled, count"
scalar RoutingScenario.node[1].ipv4.ip packetDropForwardingDisabled:sum(packetBytes) 0
attr interpolationmode none
attr source packetDropReasonIsForwardingDisabled(packetDropped)
attr title "packet drop: forwarding disabled, sum(packetBytes)"
scalar RoutingScenario.node[1].ipv4.ip packetDropNoInterfaceFound:count 0
attr interpolationmode none
attr source packetDropReasonIsNoInterfaceFound(packetDropped)
attr title "packet drop: no interface found, count"
scalar RoutingScenario.node[1].ipv4.ip packetDropNoInterfaceFound:sum(packetBytes) 0
attr interpolationmode none
attr source packetDropReasonIsNoInterfaceFound(packetDropped)
attr title "packet drop: no interface found, sum(packetBytes)"
scalar RoutingScenario.node[1].ipv4.ip packetDropNoRouteFound:count 0
attr interpolationmode none
attr source packetDropReasonIsNoRouteFound(packetDropped)
attr title "packet drop: no route found, count"
scalar RoutingScenario.node[1].ipv4.ip packetDropNoRouteFound:sum(packetBytes) 0
attr interpolationmode none
attr source packetDropReasonIsNoRouteFound(packetDropped)
attr title "packet drop: no route found, sum(packetBytes)"
scalar RoutingScenario.node[1].ipv4.ip packetDropUndefined:count 0
attr interpolationmode none
attr source packetDropReasonIsUndefined(packetDropped)
attr title "packet drop: undefined, count"
scalar RoutingScenario.node[1].ipv4.ip packetDropUndefined:sum(packetBytes) 0
attr interpolationmode none
attr source packetDropReasonIsUndefined(packetDropped)
attr title "packet drop: undefined, sum(packetBytes)"
scalar RoutingScenario.node[1].ipv4.arp arpResolutionFailed:count 0
attr title "ARP failed resolutions, count"
scalar RoutingScenario.node[1].ipv4.arp arpResolutionCompleted:count 0
attr title "ARP completed resolutions, count"
scalar RoutingScenario.node[1].ipv4.arp arpResolutionInitiated:count 0
attr title "ARP initiated resolutions, count"
scalar RoutingScenario.node[1].ipv4.arp arpReplySent:count 0
attr source arpReplySent
attr title "ARP replies sent, count"
scalar RoutingScenario.node[1].ipv4.arp arpReplySent:sum(packetBytes) 0
attr source arpReplySent
attr title "ARP replies sent, sum(packetBytes)"
scalar RoutingScenario.node[1].ipv4.arp arpRequestSent:count 0
attr source arpRequestSent
attr title "ARP request sent, count"
scalar RoutingScenario.node[1].ipv4.arp arpRequestSent:sum(packetBytes) 0
attr source arpRequestSent
attr title "ARP request sent, sum(packetBytes)"
scalar RoutingScenario.node[1].udp packetReceived:count 90
attr interpolationmode none
attr source packetReceived
attr title "packets received, count"
scalar RoutingScenario.node[1].udp packetReceived:sum(packetBytes) 2880
attr interpolationmode none
attr source packetReceived
attr title "packets received, sum(packetBytes)"
scalar RoutingScenario.node[1].udp packetSent:count 65
attr interpolationmode none
attr source packetSent
attr title "packets sent, count"
scalar RoutingScenario.node[1].udp packetSent:sum(packetBytes) 62592
attr interpolationmode none
attr source packetSent
attr title "packets sent, sum(packetBytes)"
scalar RoutingScenario.node[1].udp passedUpPk:count 90
attr interpolationmode none
attr source packetSentToUpper
attr title "packets passed up, count"
scalar RoutingScenario.node[1].udp droppedPkWrongPort:count 0
attr interpolationmode none
attr source packetDropReasonIsNoPortFound(packetDropped)
attr title "packets dropped (wrong port), count"
scalar RoutingScenario.node[1].udp droppedPkBadChecksum:count 0
attr interpolationmode none
attr source packetDropReasonIsIncorrectlyReceived(packetDropped)
attr title "packets dropped (checksum error), count"
scalar RoutingScenario.node[1].app[0] "packets sent" 62
scalar RoutingScenario.node[1].app[0] "packets received" 0
scalar RoutingScenario.node[1].app[0] packetReceived:count 0
attr interpolationmode none
attr source packetReceived
attr title "packets received, count"
scalar RoutingScenario.node[1].app[0] packetReceived:sum(packetBytes) 0
attr interpolationmode none
attr source packetReceived
attr title "packets received, sum(packetBytes)"
statistic RoutingScenario.node[1].app[0] rcvdPkLifetime:stats
field count 0
field mean -nan
field stddev nan
field min nan
field max nan
field sum 0
field sqrsum 0
attr interpolationmode none
attr source dataAge(packetReceived)
attr title "received packet lifetime, stats"
attr unit s
scalar RoutingScenario.node[1].app[0] packetSent:count 62
attr interpolationmode none
attr source packetSent
attr title "packets sent, count"
scalar RoutingScenario.node[1].app[0] packetSent:sum(packetBytes) 62000
attr interpolationmode none
attr source packetSent
attr title "packets sent, sum(packetBytes)"
scalar RoutingScenario.node[2].lo[0].lo rcvdPkFromHl:count 0
attr interpolationmode none
attr source packetReceivedFromUpper
attr title "packets received from higher layer, count"
scalar RoutingScenario.node[2].lo[0].lo rcvdPkFromHl:sum(packetBytes) 0
attr interpolationmode none
attr source packetReceivedFromUpper
attr title "packets received from higher layer, sum(packetBytes)"
scalar RoutingScenario.node[2].lo[0].lo passedUpPk:count 0
attr interpolationmode none
attr source packetSentToUpper
attr title "packets passed to higher layer, count"
scalar RoutingScenario.node[2].lo[0].lo passedUpPk:sum(packetBytes) 0
attr interpolationmode none
attr source packetSentToUpper
attr title "packets passed to higher layer, sum(packetBytes)"
scalar RoutingScenario.node[2].wlan[0].mac.dcf.channelAccess.pendingQueue packetPopped:count 3
attr interpolationmode none
attr title "packet popped, count"
scalar RoutingScenario.node[2].wlan[0].mac.dcf.channelAccess.pendingQueue packetPopped:sum(packetBytes) 246
attr interpolationmode none
attr title "packet popped, sum(packetBytes)"
statistic RoutingScenario.node[2].wlan[0].mac.dcf.channelAccess.pendingQueue queueingTime:histogram
field count 3
field mean 0
field stddev 0
field min 0
field max 0
field sum 0
field sqrsum 0
attr interpolationmode none
attr source queueingTime(packetPopped)
attr title "queueing times, histogram"
attr unit s
bin	-inf	0
bin	-0.5	0
bin	-0.48	0
bin	-0.46	0
bin	-0.44	0
bin	-0.42	0
bin	-0.4	0
bin	-0.38	0
bin	-0.36	0
bin	-0.34	0
bin	-0.32	0
bin	-0.3	0
bin	-0.28	0
bin	-0.26	0
bin	-0.24	0
bin	-0.22	0
bin	-0.2	0
bin	-0.18	0
bin	-0.16	0
bin	-0.14	0
bin	-0.12	0
bin	-0.1	0
bin	-0.08	0
bin	-0.06	0
bin	-0.04	0
bin	-0.02	0
bin	0	3
bin	0.02	0
bin	0.04	0
bin	0.06	0
bin	0.08	0
bin	0.1	0
bin	0.12	0
bin	0.14	0
bin	0.16	0
bin	0.18	0
bin	0.2	0
bin	0.22	0
bin	0.24	0
bin	0.26	0
bin	0.28	0
bin	0.3	0
bin	0.32	0
bin	0.34	0
bin	0.36	0
bin	0.38	0
bin	0.4	0
bin	0.42	0
bin	0.44	0
bin	0.46	0
bin	0.48	0
bin	0.5	0
scalar RoutingScenario.node[2].wlan[0].mac.dcf.channelAccess.pendingQueue queueLength:max 1
attr interpolationmode sample-hold
attr source "count(packetPushed) - count(packetPopped) - count(packetRemoved) - count(packetDropped)"
attr title "queue length, max"
scalar RoutingScenario.node[2].wlan[0].mac.dcf.channelAccess.pendingQueue queueLength:timeavg 0
attr interpolationmode sample-hold
attr source "count(packetPushed) - count(packetPopped) - count(packetRemoved) - count(packetDropped)"
attr title "queue length, timeavg"
scalar RoutingScenario.node[2].wlan[0].mac.dcf.channelAccess.pendingQueue packetPushed:count 3
attr interpolationmode none
attr title "packet pushed, count"
scalar RoutingScenario.node[2].wlan[0].mac.dcf.channelAccess.pendingQueue packetPushed:sum(packetBytes) 246
attr interpolationmode none
attr title "packet pushed, sum(packetBytes)"
scalar RoutingScenario.node[2].wlan[0].mac.dcf.channelAccess.pendingQueue packetDropQueueOverflow:count 0
attr interpolationmode none
attr source packetDropReasonIsQueueOverflow(packetDropped)
attr title "packet drops: queue overflow, count"
scalar RoutingScenario.node[2].wlan[0].mac.dcf.channelAccess.pendingQueue packetDropQueueOverflow:sum(packetBytes) 0
attr interpolationmode none
attr source packetDropReasonIsQueueOverflow(packetDropped)
attr title "packet drops: queue overflow, sum(packetBytes)"
scalar RoutingScenario.node[2].wlan[0].mac.dcf.channelAccess.pendingQueue packetRemoved:count 0
attr interpolationmode none
attr title "packets removed, count"
scalar RoutingScenario.node[2].wlan[0].mac.dcf.channelAccess.pendingQueue packetRemoved:sum(packetBytes) 0
attr interpolationmode none
attr title "packets removed, sum(packetBytes)"
statistic RoutingScenario.node[2].wlan[0].mac.dcf.channelAccess.inProgressFrames queueingTime:histogram
field count 3
field mean 0.000104
field stddev 0
field min 0.000104
field max 0.000104
field sum 0.000312
field sqrsum 3.2448e-08
attr interpolationmode none
attr source queueingTime(packetDequeued)
attr title "queueing times, histogram"
bin	-inf	0
bin	0	3
bin	0.01	0
bin	0.02	0
bin	0.03	0
bin	0.04	0
bin	0.05	0
bin	0.06	0
bin	0.07	0
bin	0.08	0
bin	0.09	0
bin	0.1	0
bin	0.11	0
bin	0.12	0
bin	0.13	0
bin	0.14	0
bin	0.15	0
bin	0.16	0
bin	0.17	0
bin	0.18	0
bin	0.19	0
bin	0.2	0
bin	0.21	0
bin	0.22	0
bin	0.23	0
bin	0.24	0
bin	0.25	0
bin	0.26	0
bin	0.27	0
bin	0.28	0
bin	0.29	0
bin	0.3	0
bin	0.31	0
bin	0.32	0
bin	0.33	0
bin	0.34	0
bin	0.35	0
bin	0.36	0
bin	0.37	0
bin	0.38	0
bin	0.39	0
bin	0.4	0
bin	0.41	0
bin	0.42	0
bin	0.43	0
bin	0.44	0
bin	0.45	0
bin	0.46	0
bin	0.47	0
bin	0.48	0
bin	0.49	0
bin	0.5	0
bin	0.51	0
scalar RoutingScenario.node[2].wlan[0].mac.dcf.channelAccess.inProgressFrames queueLength:max 1
attr interpolationmode sample-hold
attr source "count(packetEnqueued) - count(packetDequeued)"
attr title "queue length, max"
scalar RoutingScenario.node[2].wlan[0].mac.dcf.channelAccess.inProgressFrames queueLength:timeavg 0.00037761546202948
attr interpolationmode sample-hold
attr source "count(packetEnqueued) - count(packetDequeued)"
attr title "queue length, timeavg"
scalar RoutingScenario.node[2].wlan[0].mac.dcf.channelAccess.contention channelAccessGranted:count 3
attr title "channel access granted, count"
scalar RoutingScenario.node[2].wlan[0].mac.dcf.channelAccess.contention stateChanged:count 40
attr interpolationmode none
attr title "contention state changed, count"
scalar RoutingScenario.node[2].wlan[0].mac.dcf.channelAccess channelOwnershipChanged:count 6
attr interpolationmode sample-hold
attr title "channel ownership, count"
scalar RoutingScenario.node[2].wlan[0].mac.dcf.originatorMacDataService packetAggregated:count 0
attr title "packets aggregated, count"
scalar RoutingScenario.node[2].wlan[0].mac.dcf.originatorMacDataService packetFragmented:count 0
attr title "packets fragmented, count"
scalar RoutingScenario.node[2].wlan[0].mac.dcf.recipientMacDataService packetDeaggregated:count 0
attr title "packets deaggregated, count"
scalar RoutingScenario.node[2].wlan[0].mac.dcf.recipientMacDataService packetDefragmented:count 1
attr title "packets defragmented, count"
scalar RoutingScenario.node[2].wlan[0].mac.dcf.recipientMacDataService packetDropDuplicateDetected:count 0
attr interpolationmode none
attr source packetDropReasonIsDuplicateDetected(packetDropped)
attr title "packet drops: duplicate detected, count"
scalar RoutingScenario.node[2].wlan[0].mac.dcf.recipientMacDataService packetDropDuplicateDetected:sum(packetBytes) 0
attr interpolationmode none
attr source packetDropReasonIsDuplicateDetected(packetDropped)
attr title "packet drops: duplicate detected, sum(packetBytes)"
scalar RoutingScenario.node[2].wlan[0].mac.dcf.recoveryProcedure retryLimitReached:count 0
attr title "retry limit reached, count"
scalar RoutingScenario.node[2].wlan[0].mac.dcf frameSequenceFinished:count 3
attr title "finished frame sequences, count"
statistic RoutingScenario.node[2].wlan[0].mac.dcf frameSequenceDuration:histogram
field count 3
field mean 0.000104
field stddev 0
field min 0.000104
field max 0.000104
field sum 0.000312
field sqrsum 3.2448e-08
attr source frameSequenceDuration(frameSequenceFinished)
attr title "frame sequence durations, histogram"
bin	-inf	0
bin	0	3
bin	0.01	0
bin	0.02	0
bin	0.03	0
bin	0.04	0
bin	0.05	0
bin	0.06	0
bin	0.07	0
bin	0.08	0
bin	0.09	0
bin	0.1	0
bin	0.11	0
bin	0.12	0
bin	0.13	0
bin	0.14	0
bin	0.15	0
bin	0.16	0
bin	0.17	0
bin	0.18	0
bin	0.19	0
bin	0.2	0
bin	0.21	0
bin	0.22	0
bin	0.23	0
bin	0.24	0
bin	0.25	0
bin	0.26	0
bin	0.27	0
bin	0.28	0
bin	0.29	0
bin	0.3	0
bin	0.31	0
bin	0.32	0
bin	0.33	0
bin	0.34	0
bin	0.35	0
bin	0.36	0
bin	0.37	0
bin	0.38	0
bin	0.39	0
bin	0.4	0
bin	0.41	0
bin	0.42	0
bin	0.43	0
bin	0.44	0
bin	0.45	0
bin	0.46	0
bin	0.47	0
bin	0.48	0
bin	0.49	0
bin	0.5	0
bin	0.51	0
statistic RoutingScenario.node[2].wlan[0].mac.dcf frameSequenceNumPackets:histogram
field count 3
field mean 1
field stddev 0
field min 1
field max 1
field sum 3
field sqrsum 3
attr source frameSequenceNumPackets(frameSequenceFinished)
attr title "frame sequences: number of packets, histogram"
bin	-inf	0
bin	0	0
bin	1	3
bin	2	0
scalar RoutingScenario.node[2].wlan[0].mac.dcf packetReceivedFromPeer:count 1
attr interpolationmode none
attr title "packets received, count"
scalar RoutingScenario.node[2].wlan[0].mac.dcf packetReceivedFromPeer:sum(packetBytes) 82
attr interpolationmode none
attr title "packets received, sum(packetBytes)"
scalar RoutingScenario.node[2].wlan[0].mac.dcf packetReceivedFromPeerUnicast:count 0
attr interpolationmode none
attr source ieee80211Unicast(packetReceivedFromPeer)
attr title "packets received: unicast, count"
scalar RoutingScenario.node[2].wlan[0].mac.dcf packetReceivedFromPeerUnicast:sum(packetBytes) 0
attr interpolationmode none
attr source ieee80211Unicast(packetReceivedFromPeer)
attr title "packets received: unicast, sum(packetBytes)"
scalar RoutingScenario.node[2].wlan[0].mac.dcf packetReceivedFromPeerMulticast:count 1
attr interpolationmode none
attr source ieee80211Multicast(packetReceivedFromPeer)
attr title "packets received: multicast, count"
scalar RoutingScenario.node[2].wlan[0].mac.dcf packetReceivedFromPeerMulticast:sum(packetBytes) 82
attr interpolationmode none
attr source ieee80211Multicast(packetReceivedFromPeer)
attr title "packets received: multicast, sum(packetBytes)"
scalar RoutingScenario.node[2].wlan[0].mac.dcf packetReceivedFromPeerBroadcast:count 1
attr interpolationmode none
attr source ieee80211Broadcast(packetReceivedFromPeer)
attr title "packets received: broadcast, count"
scalar RoutingScenario.node[2].wlan[0].mac.dcf packetReceivedFromPeerBroadcast:sum(packetBytes) 82
attr interpolationmode none
attr source ieee80211Broadcast(packetReceivedFromPeer)
attr title "packets received: broadcast, sum(packetBytes)"
scalar RoutingScenario.node[2].wlan[0].mac.dcf packetReceivedFromPeerWithRetry:count 0
attr interpolationmode none
attr source ieee80211Retry(packetReceivedFromPeer)
attr title "packets received: with retry, count"
scalar RoutingScenario.node[2].wlan[0].mac.dcf packetReceivedFromPeerWithRetry:sum(packetBytes) 0
attr interpolationmode none
attr source ieee80211Retry(packetReceivedFromPeer)
attr title "packets received: with retry, sum(packetBytes)"
scalar RoutingScenario.node[2].wlan[0].mac.dcf packetReceivedFromPeerWithoutRetry:count 1
attr interpolationmode none
attr source ieee80211NotRetry(packetReceivedFromPeer)
attr title "packets received: without retry, count"
scalar RoutingScenario.node[2].wlan[0].mac.dcf packetReceivedFromPeerWithoutRetry:sum(packetBytes) 82
attr interpolationmode none
attr source ieee80211NotRetry(packetReceivedFromPeer)
attr title "packets received: without retry, sum(packetBytes)"
scalar RoutingScenario.node[2].wlan[0].mac.dcf packetSentToPeer:count 3
attr interpolationmode none
attr title "packets sent, count"
scalar RoutingScenario.node[2].wlan[0].mac.dcf packetSentToPeer:sum(packetBytes) 246
attr interpolationmode none
attr title "packets sent, sum(packetBytes)"
scalar RoutingScenario.node[2].wlan[0].mac.dcf packetSentToPeerUnicast:count 0
attr interpolationmode none
attr source ieee80211Unicast(packetSentToPeer)
attr title "packets sent: unicast, count"
scalar RoutingScenario.node[2].wlan[0].mac.dcf packetSentToPeerUnicast:sum(packetBytes) 0
attr interpolationmode none
attr source ieee80211Unicast(packetSentToPeer)
attr title "packets sent: unicast, sum(packetBytes)"
scalar RoutingScenario.node[2].wlan[0].mac.dcf packetSentToPeerMulticast:count 3
attr interpolationmode none
attr source ieee80211Multicast(packetSentToPeer)
attr title "packets sent: multicast, count"
scalar RoutingScenario.node[2].wlan[0].mac.dcf packetSentToPeerMulticast:sum(packetBytes) 246
attr interpolationmode none
attr source ieee80211Multicast(packetSentToPeer)
attr title "packets sent: multicast, sum(packetBytes)"
scalar RoutingScenario.node[2].wlan[0].mac.dcf packetSentToPeerBroadcast:count 3
attr interpolationmode none
attr source ieee80211Broadcast(packetSentToPeer)
attr title "packets sent: broadcast , count"
scalar RoutingScenario.node[2].wlan[0].mac.dcf packetSentToPeerBroadcast:sum(packetBytes) 246
attr interpolationmode none
attr source ieee80211Broadcast(packetSentToPeer)
attr title "packets sent: broadcast , sum(packetBytes)"
scalar RoutingScenario.node[2].wlan[0].mac.dcf packetSentToPeerWithRetry:count 0
attr interpolationmode none
attr source ieee80211Retry(packetSentToPeer)
attr title "packets sent: with retry, count"
scalar RoutingScenario.node[2].wlan[0].mac.dcf packetSentToPeerWithRetry:sum(packetBytes) 0
attr interpolationmode none
attr source ieee80211Retry(packetSentToPeer)
attr title "packets sent: with retry, sum(packetBytes)"
scalar RoutingScenario.node[2].wlan[0].mac.dcf packetSentToPeerWithoutRetry:count 3
attr interpolationmode none
attr source ieee80211NotRetry(packetSentToPeer)
attr title "packets sent: without retry, count"
scalar RoutingScenario.node[2].wlan[0].mac.dcf packetSentToPeerWithoutRetry:sum(packetBytes) 246
attr interpolationmode none
attr source ieee80211NotRetry(packetSentToPeer)
attr title "packets sent: without retry, sum(packetBytes)"
scalar RoutingScenario.node[2].wlan[0].mac.dcf packetDrop:count 0
attr interpolationmode none
attr source packetDropped
attr title "packet drops, count"
scalar RoutingScenario.node[2].wlan[0].mac.dcf packetDrop:sum(packetBytes) 0
attr interpolationmode none
attr source packetDropped
attr title "packet drops, sum(packetBytes)"
scalar RoutingScenario.node[2].wlan[0].mac.dcf packetDropNotAddressedToUs:count 0
attr interpolationmode none
attr source packetDropReasonIsNotAddressedToUs(packetDropped)
attr title "packet drops: not addressed to us, count"
scalar RoutingScenario.node[2].wlan[0].mac.dcf packetDropNotAddressedToUs:sum(packetBytes) 0
attr interpolationmode none
attr source packetDropReasonIsNotAddressedToUs(packetDropped)
attr title "packet drops: not addressed to us, sum(packetBytes)"
scalar RoutingScenario.node[2].wlan[0].mac.dcf packetDropQueueOverflow:count 0
attr interpolationmode none
attr source packetDropReasonIsQueueOverflow(packetDropped)
attr title "packet drops: queue overflow, count"
scalar RoutingScenario.node[2].wlan[0].mac.dcf packetDropQueueOverflow:sum(packetBytes) 0
attr interpolationmode none
attr source packetDropReasonIsQueueOverflow(packetDropped)
attr title "packet drops: queue overflow, sum(packetBytes)"
scalar RoutingScenario.node[2].wlan[0].mac.dcf packetDropRetryLimitReached:count 0
attr interpolationmode none
attr source packetDropReasonIsRetryLimitReached(packetDropped)
attr title "packet drops: retry limit reached, count"
scalar RoutingScenario.node[2].wlan[0].mac.dcf packetDropRetryLimitReached:sum(packetBytes) 0
attr interpolationmode none
attr source packetDropReasonIsRetryLimitReached(packetDropped)
attr title "packet drops: retry limit reached, sum(packetBytes)"
scalar RoutingScenario.node[2].wlan[0].mac.dcf linkBroken:count 0
attr interpolationmode none
attr title "link breaks, count"
scalar RoutingScenario.node[2].wlan[0].mac packetReceivedFromLower:count 2
attr interpolationmode none
attr title "packets received from lower layer, count"
scalar RoutingScenario.node[2].wlan[0].mac packetReceivedFromLower:sum(packetBytes) 164
attr interpolationmode none
attr title "packets received from lower layer, sum(packetBytes)"
scalar RoutingScenario.node[2].wlan[0].mac packetSentToLower:count 3
attr interpolationmode none
attr title "packets sent to lower layer, count"
scalar RoutingScenario.node[2].wlan[0].mac packetSentToLower:sum(packetBytes) 246
attr interpolationmode none
attr title "packets sent to lower layer, sum(packetBytes)"
scalar RoutingScenario.node[2].wlan[0].mac packetReceivedFromUpper:count 3
attr interpolationmode none
attr title "packets received from upper layer, count"
scalar RoutingScenario.node[2].wlan[0].mac packetReceivedFromUpper:sum(packetBytes) 162
attr interpolationmode none
attr title "packets received from upper layer, sum(packetBytes)"
scalar RoutingScenario.node[2].wlan[0].mac packetSentToUpper:count 1
attr interpolationmode none
attr title "packets sent to upper layer, count"
scalar RoutingScenario.node[2].wlan[0].mac packetSentToUpper:sum(packetBytes) 54
attr interpolationmode none
attr title "packets sent to upper layer, sum(packetBytes)"
scalar RoutingScenario.node[2].wlan[0].mac packetDrop:count 1
attr interpolationmode none
attr source packetDropped
attr title "packet drops, count"
scalar RoutingScenario.node[2].wlan[0].mac packetDrop:sum(packetBytes) 82
attr interpolationmode none
attr source packetDropped
attr title "packet drops, sum(packetBytes)"
scalar RoutingScenario.node[2].wlan[0].mac packetDropIncorrectlyReceived:count 1
attr interpolationmode none
[...]
attr title "packets received: multicast, sum(packetBytes)"
scalar RoutingScenario.node[23].wlan[0].mac.dcf packetReceivedFromPeerBroadcast:count 225
attr interpolationmode none
attr source ieee80211Broadcast(packetReceivedFromPeer)
attr title "packets received: broadcast, count"
scalar RoutingScenario.node[23].wlan[0].mac.dcf packetReceivedFromPeerBroadcast:sum(packetBytes) 18450
attr interpolationmode none
attr source ieee80211Broadcast(packetReceivedFromPeer)
attr title "packets received: broadcast, sum(packetBytes)"
scalar RoutingScenario.node[23].wlan[0].mac.dcf packetReceivedFromPeerWithRetry:count 0
attr interpolationmode none
attr source ieee80211Retry(packetReceivedFromPeer)
attr title "packets received: with retry, count"
scalar RoutingScenario.node[23].wlan[0].mac.dcf packetReceivedFromPeerWithRetry:sum(packetBytes) 0
attr interpolationmode none
attr source ieee80211Retry(packetReceivedFromPeer)
attr title "packets received: with retry, sum(packetBytes)"
scalar RoutingScenario.node[23].wlan[0].mac.dcf packetReceivedFromPeerWithoutRetry:count 225
attr interpolationmode none
attr source ieee80211NotRetry(packetReceivedFromPeer)
attr title "packets received: without retry, count"
scalar RoutingScenario.node[23].wlan[0].mac.dcf packetReceivedFromPeerWithoutRetry:sum(packetBytes) 18450
attr interpolationmode none
attr source ieee80211NotRetry(packetReceivedFromPeer)
attr title "packets received: without retry, sum(packetBytes)"
scalar RoutingScenario.node[23].wlan[0].mac.dcf packetSentToPeer:count 2
attr interpolationmode none
attr title "packets sent, count"
scalar RoutingScenario.node[23].wlan[0].mac.dcf packetSentToPeer:sum(packetBytes) 164
attr interpolationmode none
attr title "packets sent, sum(packetBytes)"
scalar RoutingScenario.node[23].wlan[0].mac.dcf packetSentToPeerUnicast:count 0
attr interpolationmode none
attr source ieee80211Unicast(packetSentToPeer)
attr title "packets sent: unicast, count"
scalar RoutingScenario.node[23].wlan[0].mac.dcf packetSentToPeerUnicast:sum(packetBytes) 0
attr interpolationmode none
attr source ieee80211Unicast(packetSentToPeer)
attr title "packets sent: unicast, sum(packetBytes)"
scalar RoutingScenario.node[23].wlan[0].mac.dcf packetSentToPeerMulticast:count 2
attr interpolationmode none
attr source ieee80211Multicast(packetSentToPeer)
attr title "packets sent: multicast, count"
scalar RoutingScenario.node[23].wlan[0].mac.dcf packetSentToPeerMulticast:sum(packetBytes) 164
attr interpolationmode none
attr source ieee80211Multicast(packetSentToPeer)
attr title "packets sent: multicast, sum(packetBytes)"
scalar RoutingScenario.node[23].wlan[0].mac.dcf packetSentToPeerBroadcast:count 2
attr interpolationmode none
attr source ieee80211Broadcast(packetSentToPeer)
attr title "packets sent: broadcast , count"
scalar RoutingScenario.node[23].wlan[0].mac.dcf packetSentToPeerBroadcast:sum(packetBytes) 164
attr interpolationmode none
attr source ieee80211Broadcast(packetSentToPeer)
attr title "packets sent: broadcast , sum(packetBytes)"
scalar RoutingScenario.node[23].wlan[0].mac.dcf packetSentToPeerWithRetry:count 0
attr interpolationmode none
attr source ieee80211Retry(packetSentToPeer)
attr title "packets sent: with retry, count"
scalar RoutingScenario.node[23].wlan[0].mac.dcf packetSentToPeerWithRetry:sum(packetBytes) 0
attr interpolationmode none
attr source ieee80211Retry(packetSentToPeer)
attr title "packets sent: with retry, sum(packetBytes)"
scalar RoutingScenario.node[23].wlan[0].mac.dcf packetSentToPeerWithoutRetry:count 2
attr interpolationmode none
attr source ieee80211NotRetry(packetSentToPeer)
attr title "packets sent: without retry, count"
scalar RoutingScenario.node[23].wlan[0].mac.dcf packetSentToPeerWithoutRetry:sum(packetBytes) 164
attr interpolationmode none
attr source ieee80211NotRetry(packetSentToPeer)
attr title "packets sent: without retry, sum(packetBytes)"
scalar RoutingScenario.node[23].wlan[0].mac.dcf packetDrop:count 0
attr interpolationmode none
attr source packetDropped
attr title "packet drops, count"
scalar RoutingScenario.node[23].wlan[0].mac.dcf packetDrop:sum(packetBytes) 0
attr interpolationmode none
attr source packetDropped
attr title "packet drops, sum(packetBytes)"
scalar RoutingScenario.node[23].wlan[0].mac.dcf packetDropNotAddressedToUs:count 0
attr interpolationmode none
attr source packetDropReasonIsNotAddressedToUs(packetDropped)
attr title "packet drops: not addressed to us, count"
scalar RoutingScenario.node[23].wlan[0].mac.dcf packetDropNotAddressedToUs:sum(packetBytes) 0
attr interpolationmode none
attr source packetDropReasonIsNotAddressedToUs(packetDropped)
attr title "packet drops: not addressed to us, sum(packetBytes)"
scalar RoutingScenario.node[23].wlan[0].mac.dcf packetDropQueueOverflow:count 0
attr interpolationmode none
attr source packetDropReasonIsQueueOverflow(packetDropped)
attr title "packet drops: queue overflow, count"
scalar RoutingScenario.node[23].wlan[0].mac.dcf packetDropQueueOverflow:sum(packetBytes) 0
attr interpolationmode none
attr source packetDropReasonIsQueueOverflow(packetDropped)
attr title "packet drops: queue overflow, sum(packetBytes)"
scalar RoutingScenario.node[23].wlan[0].mac.dcf packetDropRetryLimitReached:count 0
attr interpolationmode none
attr source packetDropReasonIsRetryLimitReached(packetDropped)
attr title "packet drops: retry limit reached, count"
scalar RoutingScenario.node[23].wlan[0].mac.dcf packetDropRetryLimitReached:sum(packetBytes) 0
attr interpolationmode none
attr source packetDropReasonIsRetryLimitReached(packetDropped)
attr title "packet drops: retry limit reached, sum(packetBytes)"
scalar RoutingScenario.node[23].wlan[0].mac.dcf linkBroken:count 0
attr interpolationmode none
attr title "link breaks, count"
scalar RoutingScenario.node[23].wlan[0].mac packetReceivedFromLower:count 225
attr interpolationmode none
attr title "packets received from lower layer, count"
scalar RoutingScenario.node[23].wlan[0].mac packetReceivedFromLower:sum(packetBytes) 18450
attr interpolationmode none
attr title "packets received from lower layer, sum(packetBytes)"
scalar RoutingScenario.node[23].wlan[0].mac packetSentToLower:count 2
attr interpolationmode none
attr title "packets sent to lower layer, count"
scalar RoutingScenario.node[23].wlan[0].mac packetSentToLower:sum(packetBytes) 164
attr interpolationmode none
attr title "packets sent to lower layer, sum(packetBytes)"
scalar RoutingScenario.node[23].wlan[0].mac packetReceivedFromUpper:count 2
attr interpolationmode none
attr title "packets received from upper layer, count"
scalar RoutingScenario.node[23].wlan[0].mac packetReceivedFromUpper:sum(packetBytes) 108
attr interpolationmode none
attr title "packets received from upper layer, sum(packetBytes)"
scalar RoutingScenario.node[23].wlan[0].mac packetSentToUpper:count 225
attr interpolationmode none
attr title "packets sent to upper layer, count"
scalar RoutingScenario.node[23].wlan[0].mac packetSentToUpper:sum(packetBytes) 12150
attr interpolationmode none
attr title "packets sent to upper layer, sum(packetBytes)"
scalar RoutingScenario.node[23].wlan[0].mac packetDrop:count 0
attr interpolationmode none
attr source packetDropped
attr title "packet drops, count"
scalar RoutingScenario.node[23].wlan[0].mac packetDrop:sum(packetBytes) 0
attr interpolationmode none
attr source packetDropped
attr title "packet drops, sum(packetBytes)"
scalar RoutingScenario.node[23].wlan[0].mac packetDropIncorrectlyReceived:count 0
attr interpolationmode none
attr source packetDropReasonIsIncorrectlyReceived(packetDropped)
attr title "packet drops: incorrectly received, count"
scalar RoutingScenario.node[23].wlan[0].mac packetDropIncorrectlyReceived:sum(packetBytes) 0
attr interpolationmode none
attr source packetDropReasonIsIncorrectlyReceived(packetDropped)
attr title "packet drops: incorrectly received, sum(packetBytes)"
scalar RoutingScenario.node[23].wlan[0].mac packetDropNotAddressedToUs:count 0
attr interpolationmode none
attr source packetDropReasonIsNotAddressedToUs(packetDropped)
attr title "packet drops: not addressed to us, count"
scalar RoutingScenario.node[23].wlan[0].mac packetDropNotAddressedToUs:sum(packetBytes) 0
attr interpolationmode none
attr source packetDropReasonIsNotAddressedToUs(packetDropped)
attr title "packet drops: not addressed to us, sum(packetBytes)"
scalar RoutingScenario.node[23].wlan[0].mac packetDropQueueOverflow:count 0
attr interpolationmode none
attr source packetDropReasonIsQueueOverflow(packetDropped)
attr title "packet drops: queue overflow, count"
scalar RoutingScenario.node[23].wlan[0].mac packetDropQueueOverflow:sum(packetBytes) 0
attr interpolationmode none
attr source packetDropReasonIsQueueOverflow(packetDropped)
attr title "packet drops: queue overflow, sum(packetBytes)"
scalar RoutingScenario.node[23].wlan[0].mac packetDropRetryLimitReached:count 0
attr interpolationmode none
attr source packetDropReasonIsRetryLimitReached(packetDropped)
attr title "packet drops: retry limit reached, count"
scalar RoutingScenario.node[23].wlan[0].mac packetDropRetryLimitReached:sum(packetBytes) 0
attr interpolationmode none
attr source packetDropReasonIsRetryLimitReached(packetDropped)
attr title "packet drops: retry limit reached, sum(packetBytes)"
scalar RoutingScenario.node[23].wlan[0].mac packetDropDuplicateDetected:count 0
attr interpolationmode none
attr source packetDropReasonIsDuplicateDetected(packetDropped)
attr title "packet drops: duplicate detected, count"
scalar RoutingScenario.node[23].wlan[0].mac packetDropDuplicateDetected:sum(packetBytes) 0
attr interpolationmode none
attr source packetDropReasonIsDuplicateDetected(packetDropped)
attr title "packet drops: duplicate detected, sum(packetBytes)"
scalar RoutingScenario.node[23].wlan[0].mac packetDropOther:count 0
attr interpolationmode none
attr source packetDropReasonIsOther(packetDropped)
attr title "packet drops: other, count"
scalar RoutingScenario.node[23].wlan[0].mac packetDropOther:sum(packetBytes) 0
attr interpolationmode none
attr source packetDropReasonIsOther(packetDropped)
attr title "packet drops: other, sum(packetBytes)"
scalar RoutingScenario.node[23].wlan[0].mac linkBroken:count 0
attr interpolationmode none
attr title "link breaks, count"
statistic RoutingScenario.node[23].wlan[0].radio radioChannel:histogram
field count 1
field mean 3
field stddev -nan
field min 3
field max 3
field sum 3
field sqrsum 9
attr interpolationmode sample-hold
attr source radioChannelChanged
attr title "Radio channel, histogram"
bin	-inf	0
bin	2	0
bin	3	1
bin	4	0
scalar RoutingScenario.node[23].wlan[0].radio radioMode:count 7
attr interpolationmode sample-hold
attr source radioModeChanged
attr title "Radio mode, count"
scalar RoutingScenario.node[23].wlan[0].radio receptionState:count 456
attr interpolationmode sample-hold
attr source receptionStateChanged
attr title "Radio reception state, count"
scalar RoutingScenario.node[23].wlan[0].radio transmissionState:count 8
attr interpolationmode sample-hold
attr source transmissionStateChanged
attr title "Radio transmission state, count"
statistic RoutingScenario.node[23].wlan[0].radio minSnir:histogram
field count 225
field mean 38779.93805064
field stddev 64789.775417991
field min 497.87440243246
field max 162886.85635326
field sum 8725486.061394
field sqrsum 1278661968634.5
attr source minimumSnir(packetSentToUpper)
attr title "Min SNIR, histogram"
bin	-inf	0
bin	0	4
bin	2000	168
bin	4000	1
bin	6000	0
bin	8000	0
bin	10000	0
bin	12000	0
bin	14000	0
bin	16000	0
bin	18000	0
bin	20000	0
bin	22000	0
bin	24000	0
bin	26000	0
bin	28000	0
bin	30000	0
bin	32000	0
bin	34000	0
bin	36000	0
bin	38000	0
bin	40000	0
bin	42000	0
bin	44000	0
bin	46000	0
bin	48000	0
bin	50000	0
bin	52000	0
bin	54000	0
bin	56000	0
bin	58000	0
bin	60000	0
bin	62000	0
bin	64000	0
bin	66000	0
bin	68000	0
bin	70000	0
bin	72000	0
bin	74000	0
bin	76000	0
bin	78000	0
bin	80000	0
bin	82000	0
bin	84000	0
bin	86000	0
bin	88000	0
bin	90000	0
bin	92000	0
bin	94000	0
bin	96000	0
bin	98000	0
bin	100000	0
bin	102000	0
bin	104000	0
bin	106000	0
bin	108000	0
bin	110000	0
bin	112000	0
bin	114000	0
bin	116000	0
bin	118000	0
bin	120000	0
bin	122000	0
bin	124000	0
bin	126000	0
bin	128000	0
bin	130000	0
bin	132000	0
bin	134000	0
bin	136000	0
bin	138000	0
bin	140000	0
bin	142000	0
bin	144000	0
bin	146000	22
bin	148000	0
bin	150000	0
bin	152000	0
bin	154000	0
bin	156000	0
bin	158000	0
bin	160000	0
bin	162000	30
bin	164000	0
bin	166000	0
bin	168000	0
bin	170000	0
bin	172000	0
bin	174000	0
bin	176000	0
bin	178000	0
bin	180000	0
bin	182000	0
bin	184000	0
bin	186000	0
bin	188000	0
bin	190000	0
bin	192000	0
bin	194000	0
bin	196000	0
bin	198000	0
bin	200000	0
bin	202000	0
bin	204000	0
statistic RoutingScenario.node[23].wlan[0].radio packetErrorRate:histogram
field count 225
field mean 0
field stddev 0
field min 0
field max 0
field sum 0
field sqrsum 0
attr source packetErrorRate(packetSentToUpper)
attr title "Packet error rate, histogram"
bin	-inf	0
bin	-0.5	0
bin	-0.48	0
bin	-0.46	0
bin	-0.44	0
bin	-0.42	0
bin	-0.4	0
bin	-0.38	0
bin	-0.36	0
bin	-0.34	0
bin	-0.32	0
bin	-0.3	0
bin	-0.28	0
bin	-0.26	0
bin	-0.24	0
bin	-0.22	0
bin	-0.2	0
bin	-0.18	0
bin	-0.16	0
bin	-0.14	0
bin	-0.12	0
bin	-0.1	0
bin	-0.08	0
bin	-0.06	0
bin	-0.04	0
bin	-0.02	0
bin	0	225
bin	0.02	0
bin	0.04	0
bin	0.06	0
bin	0.08	0
bin	0.1	0
bin	0.12	0
bin	0.14	0
bin	0.16	0
bin	0.18	0
bin	0.2	0
bin	0.22	0
bin	0.24	0
bin	0.26	0
bin	0.28	0
bin	0.3	0
bin	0.32	0
bin	0.34	0
bin	0.36	0
bin	0.38	0
bin	0.4	0
bin	0.42	0
bin	0.44	0
bin	0.46	0
bin	0.48	0
bin	0.5	0
statistic RoutingScenario.node[23].wlan[0].radio bitErrorRate:histogram
field count 0
field mean -nan
field stddev nan
field min nan
field max nan
field sum 0
field sqrsum 0
attr source bitErrorRate(packetSentToUpper)
attr title "Bit error rate, histogram"
bin	-inf	0
bin	0	0
bin	1	0
statistic RoutingScenario.node[23].wlan[0].radio symbolErrorRate:histogram
field count 0
field mean -nan
field stddev nan
field min nan
field max nan
field sum 0
field sqrsum 0
attr source symbolErrorRate(packetSentToUpper)
attr title "Symbol error rate, histogram"
bin	-inf	0
bin	0	0
bin	1	0
scalar RoutingScenario.node[23].ipv4.ip packetDropAddressResolutionFailed:count 0
attr interpolationmode none
attr source packetDropReasonIsAddressResolutionFailed(packetDropped)
attr title "packet drop: address resolution failed, count"
scalar RoutingScenario.node[23].ipv4.ip packetDropAddressResolutionFailed:sum(packetBytes) 0
attr interpolationmode none
attr source packetDropReasonIsAddressResolutionFailed(packetDropped)
attr title "packet drop: address resolution failed, sum(packetBytes)"
scalar RoutingScenario.node[23].ipv4.ip packetDropHopLimitReached:count 0
attr interpolationmode none
attr source packetDropReasonIsHopLimitReached(packetDropped)
attr title "packet drop: hop limit reached, count"
scalar RoutingScenario.node[23].ipv4.ip packetDropHopLimitReached:sum(packetBytes) 0
attr interpolationmode none
attr source packetDropReasonIsHopLimitReached(packetDropped)
attr title "packet drop: hop limit reached, sum(packetBytes)"
scalar RoutingScenario.node[23].ipv4.ip packetDropForwardingDisabled:count 0
attr interpolationmode none
attr source packetDropReasonIsForwardingDisabled(packetDropped)
attr title "packet drop: forwarding disabled, count"
scalar RoutingScenario.node[23].ipv4.ip packetDropForwardingDisabled:sum(packetBytes) 0
attr interpolationmode none
attr source packetDropReasonIsForwardingDisabled(packetDropped)
attr title "packet drop: forwarding disabled, sum(packetBytes)"
scalar RoutingScenario.node[23].ipv4.ip packetDropNoInterfaceFound:count 0
attr interpolationmode none
attr source packetDropReasonIsNoInterfaceFound(packetDropped)
attr title "packet drop: no interface found, count"
scalar RoutingScenario.node[23].ipv4.ip packetDropNoInterfaceFound:sum(packetBytes) 0
attr interpolationmode none
attr source packetDropReasonIsNoInterfaceFound(packetDropped)
attr title "packet drop: no interface found, sum(packetBytes)"
scalar RoutingScenario.node[23].ipv4.ip packetDropNoRouteFound:count 0
attr interpolationmode none
attr source packetDropReasonIsNoRouteFound(packetDropped)
attr title "packet drop: no route found, count"
scalar RoutingScenario.node[23].ipv4.ip packetDropNoRouteFound:sum(packetBytes) 0
attr interpolationmode none
attr source packetDropReasonIsNoRouteFound(packetDropped)
attr title "packet drop: no route found, sum(packetBytes)"
scalar RoutingScenario.node[23].ipv4.ip packetDropUndefined:count 0
attr interpolationmode none
attr source packetDropReasonIsUndefined(packetDropped)
attr title "packet drop: undefined, count"
scalar RoutingScenario.node[23].ipv4.ip packetDropUndefined:sum(packetBytes) 0
attr interpolationmode none
attr source packetDropReasonIsUndefined(packetDropped)
attr title "packet drop: undefined, sum(packetBytes)"
scalar RoutingScenario.node[23].ipv4.arp arpResolutionFailed:count 0
attr title "ARP failed resolutions, count"
scalar RoutingScenario.node[23].ipv4.arp arpResolutionCompleted:count 0
attr title "ARP completed resolutions, count"
scalar RoutingScenario.node[23].ipv4.arp arpResolutionInitiated:count 0
attr title "ARP initiated resolutions, count"
scalar RoutingScenario.node[23].ipv4.arp arpReplySent:count 0
attr source arpReplySent
attr title "ARP replies sent, count"
scalar RoutingScenario.node[23].ipv4.arp arpReplySent:sum(packetBytes) 0
attr source arpReplySent
attr title "ARP replies sent, sum(packetBytes)"
scalar RoutingScenario.node[23].ipv4.arp arpRequestSent:count 0
attr source arpRequestSent
attr title "ARP request sent, count"
scalar RoutingScenario.node[23].ipv4.arp arpRequestSent:sum(packetBytes) 0
attr source arpRequestSent
attr title "ARP request sent, sum(packetBytes)"
scalar RoutingScenario.node[23].udp packetReceived:count 225
attr interpolationmode none
attr source packetReceived
attr title "packets received, count"
scalar RoutingScenario.node[23].udp packetReceived:sum(packetBytes) 7200
attr interpolationmode none
attr source packetReceived
attr title "packets received, sum(packetBytes)"
scalar RoutingScenario.node[23].udp packetSent:count 53
attr interpolationmode none
attr source packetSent
attr title "packets sent, count"
scalar RoutingScenario.node[23].udp packetSent:sum(packetBytes) 51472
attr interpolationmode none
attr source packetSent
attr title "packets sent, sum(packetBytes)"
scalar RoutingScenario.node[23].udp passedUpPk:count 225
attr interpolationmode none
attr source packetSentToUpper
attr title "packets passed up, count"
scalar RoutingScenario.node[23].udp droppedPkWrongPort:count 0
attr interpolationmode none
attr source packetDropReasonIsNoPortFound(packetDropped)
attr title "packets dropped (wrong port), count"
scalar RoutingScenario.node[23].udp droppedPkBadChecksum:count 0
attr interpolationmode none
attr source packetDropReasonIsIncorrectlyReceived(packetDropped)
attr title "packets dropped (checksum error), count"
scalar RoutingScenario.node[23].app[0] "packets sent" 51
scalar RoutingScenario.node[23].app[0] "packets received" 0
scalar RoutingScenario.node[23].app[0] packetReceived:count 0
attr interpolationmode none
attr source packetReceived
attr title "packets received, count"
scalar RoutingScenario.node[23].app[0] packetReceived:sum(packetBytes) 0
attr interpolationmode none
attr source packetReceived
attr title "packets received, sum(packetBytes)"
statistic RoutingScenario.node[23].app[0] rcvdPkLifetime:stats
field count 0
field mean -nan
field stddev nan
field min nan
field max nan
field sum 0
field sqrsum 0
attr interpolationmode none
attr source dataAge(packetReceived)
attr title "received packet lifetime, stats"
attr unit s
scalar RoutingScenario.node[23].app[0] packetSent:count 51
attr interpolationmode none
attr source packetSent
attr title "packets sent, count"
scalar RoutingScenario.node[23].app[0] packetSent:sum(packetBytes) 51000
attr interpolationmode none
attr source packetSent
attr title "packets sent, sum(packetBytes)"

