version 2
run canvas-0-20220714-08:33:13-3375
attr configname canvas
attr datetime 20220714-08:33:13
attr experiment canvas
attr inifile omnetpp.ini
attr iterationvars ""
attr iterationvarsf ""
attr measurement ""
attr network RoutingScenario
attr processid 3375
attr repetition 0
attr replication #0
attr resultdir results
attr runnumber 0
attr seedset 0
param *.visualizer.*.obstacleLossVisualizer.displayIntersections true
param *.visualizer.*.obstacleLossVisualizer.displayFaceNormalVectors true
param *.visualizer.*.obstacleLossVisualizer.intersectionLineColor "\"yellow\""
param *.visualizer.*.mediumVisualizer.signalPropagationAnimationSpeed 500/3e8
param *.visualizer.*.mediumVisualizer.signalTransmissionAnimationSpeed 50000/3e8
param *.visualizer.*.mediumVisualizer.displaySignals true
param *.visualizer.canvasVisualizer.mediumVisualizer.displaySignalDepartures false
param *.visualizer.canvasVisualizer.mediumVisualizer.displaySignalArrivals false
param *.visualizer.*.physicalLinkVisualizer.displayLinks true
param *.visualizer.*.mobilityVisualizer.displayPositions true
param *.visualizer.*.mobilityVisualizer.displayOrientations true
param *.visualizer.*.mobilityVisualizer.displayVelocities true
param *.visualizer.*.mobilityVisualizer.displayMovementTrails true
param *.visualizer.*.mobilityVisualizer.moduleFilter "\"**.antenna.mobility\""
param *.node[3].router "\"FabricationRSA\""
param *.node[5].router "\"FabricationRSA\""
param *.node[7].router "\"FabricationRSA\""
param *.node[*].router "\"SecureAodv\""
param *.node[*].numApps 1
param *.node[*].app[0].typename "\"UdpBasicApp\""
param *.node[*].app[0].destAddresses "\"node[*]\""
param *.node[*].app[0].destPort 5000
param *.node[*].app[0].messageLength 1000B
param *.node[*].app[0].sendInterval exponential(12ms)
param *.node[*].app[0].packetName "\"UDPData\""
param *.node[*].wlan[0].opMode "\"p\""
param *.node[*].wlan[0].radio.bandName "\"5.9 GHz\""
param *.node[*].wlan[0].radio.channelNumber 3
param *.node[*].wlan[0].radio.transmitter.power 20mW
param *.node[*].wlan[0].radio.bandwidth "10 MHz"
param *.node[*].ipv4.configurator.typename "\"HostAutoConfigurator\""
param *.node[*].ipv4.configurator.interfaces "\"wlan0\""
param *.node[*].ipv4.configurator.mcastGroups "\"224.0.0.1\""
param *.node[*].mobility.typename "\"VeinsInetMobility\""
param *.node[*].mobility.speed 20mps
param *.manager.updateInterval 0.1s
param *.manager.host "\"localhost\""
param *.manager.port 9999
param *.manager.autoShutdown true
param *.manager.launchConfig "xmldoc(\"bari.launchd.xml\")"
param *.manager.moduleType "\"vanetnetsec.veins_inet.VeinsInetRoutingCar\""
param *.physicalEnvironment.config "xmldoc(\"obstacles.xml\")"
param *.radioMedium.obstacleLoss.typename "\"IdealObstacleLoss\""

scalar RoutingScenario.radioMedium.propagation "Arrival computation count" 8268
scalar RoutingScenario.radioMedium "transmission count" 367
scalar RoutingScenario.radioMedium "signal send count" 8268
scalar RoutingScenario.radioMedium "reception computation count" 8268
scalar RoutingScenario.radioMedium "interference computation count" 24849
scalar RoutingScenario.radioMedium "reception decision computation count" 1484
scalar RoutingScenario.radioMedium "listening decision computation count" 15132
scalar RoutingScenario.radioMedium "reception cache hit" 78.989098116947
attr unit %
scalar RoutingScenario.radioMedium "interference cache hit" 66.666666666667
attr unit %
scalar RoutingScenario.radioMedium "noise cache hit" 0
attr unit %
scalar RoutingScenario.radioMedium "snir cache hit" 50
attr unit %
scalar RoutingScenario.radioMedium "reception decision cache hit" 50
attr unit %
scalar RoutingScenario.radioMedium "reception result cache hit" 0
attr unit %
scalar RoutingScenario.manager roiArea 0
scalar RoutingScenario.node[0].lo[0].lo rcvdPkFromHl:count 1005
attr interpolationmode none
attr source packetReceivedFromUpper
attr title "packets received from higher layer, count"
scalar RoutingScenario.node[0].lo[0].lo rcvdPkFromHl:sum(packetBytes) 1033140
attr interpolationmode none
attr source packetReceivedFromUpper
attr title "packets received from higher layer, sum(packetBytes)"
scalar RoutingScenario.node[0].lo[0].lo passedUpPk:count 1005
attr interpolationmode none
attr source packetSentToUpper
attr title "packets passed to higher layer, count"
scalar RoutingScenario.node[0].lo[0].lo passedUpPk:sum(packetBytes) 1033140
attr interpolationmode none
attr source packetSentToUpper
attr title "packets passed to higher layer, sum(packetBytes)"
scalar RoutingScenario.node[0].wlan[0].mac.dcf.channelAccess.pendingQueue packetPopped:count 5
attr interpolationmode none
attr title "packet popped, count"
scalar RoutingScenario.node[0].wlan[0].mac.dcf.channelAccess.pendingQueue packetPopped:sum(packetBytes) 350
attr interpolationmode none
attr title "packet popped, sum(packetBytes)"
statistic RoutingScenario.node[0].wlan[0].mac.dcf.channelAccess.pendingQueue queueingTime:histogram
field count 5
field mean 0.0002112267632
field stddev 0.0001688887823976
field min 7.1e-05
field max 0.000476133816
field sum 0.001056133816
field sqrsum 3.3717741073872e-07
attr interpolationmode none
attr source queueingTime(packetPopped)
attr title "queueing times, histogram"
attr unit s
bin	-inf	0
bin	0	0
bin	1e-05	0
bin	2e-05	0
bin	3e-05	0
bin	4e-05	0
bin	5e-05	0
bin	6e-05	0
bin	7e-05	1
bin	8e-05	1
bin	9e-05	0
bin	0.0001	0
bin	0.00011	0
bin	0.00012	0
bin	0.00013	0
bin	0.00014	1
bin	0.00015	0
bin	0.00016	0
bin	0.00017	0
bin	0.00018	0
bin	0.00019	0
bin	0.0002	0
bin	0.00021	0
bin	0.00022	0
bin	0.00023	0
bin	0.00024	0
bin	0.00025	0
bin	0.00026	0
bin	0.00027	1
bin	0.00028	0
bin	0.00029	0
bin	0.0003	0
bin	0.00031	0
bin	0.00032	0
bin	0.00033	0
bin	0.00034	0
bin	0.00035	0
bin	0.00036	0
bin	0.00037	0
bin	0.00038	0
bin	0.00039	0
bin	0.0004	0
bin	0.00041	0
bin	0.00042	0
bin	0.00043	0
bin	0.00044	0
bin	0.00045	0
bin	0.00046	0
bin	0.00047	1
bin	0.00048	0
bin	0.00049	0
bin	0.0005	0
bin	0.00051	0
bin	0.00052	0
bin	0.00053	0
bin	0.00054	0
bin	0.00055	0
bin	0.00056	0
bin	0.00057	0
bin	0.00058	0
scalar RoutingScenario.node[0].wlan[0].mac.dcf.channelAccess.pendingQueue queueLength:max 1
attr interpolationmode sample-hold
attr source "count(packetPushed) - count(packetPopped) - count(packetRemoved) - count(packetDropped)"
attr title "queue length, max"
scalar RoutingScenario.node[0].wlan[0].mac.dcf.channelAccess.pendingQueue queueLength:timeavg 8.9568809269286e-05
attr interpolationmode sample-hold
attr source "count(packetPushed) - count(packetPopped) - count(packetRemoved) - count(packetDropped)"
attr title "queue length, timeavg"
scalar RoutingScenario.node[0].wlan[0].mac.dcf.channelAccess.pendingQueue packetPushed:count 5
attr interpolationmode none
attr title "packet pushed, count"
scalar RoutingScenario.node[0].wlan[0].mac.dcf.channelAccess.pendingQueue packetPushed:sum(packetBytes) 350
attr interpolationmode none
attr title "packet pushed, sum(packetBytes)"
scalar RoutingScenario.node[0].wlan[0].mac.dcf.channelAccess.pendingQueue packetDropQueueOverflow:count 0
attr interpolationmode none
attr source packetDropReasonIsQueueOverflow(packetDropped)
attr title "packet drops: queue overflow, count"
scalar RoutingScenario.node[0].wlan[0].mac.dcf.channelAccess.pendingQueue packetDropQueueOverflow:sum(packetBytes) 0
attr interpolationmode none
attr source packetDropReasonIsQueueOverflow(packetDropped)
attr title "packet drops: queue overflow, sum(packetBytes)"
scalar RoutingScenario.node[0].wlan[0].mac.dcf.channelAccess.pendingQueue packetRemoved:count 0
attr interpolationmode none
attr title "packets removed, count"
scalar RoutingScenario.node[0].wlan[0].mac.dcf.channelAccess.pendingQueue packetRemoved:sum(packetBytes) 0
attr interpolationmode none
attr title "packets removed, sum(packetBytes)"
statistic RoutingScenario.node[0].wlan[0].mac.dcf.channelAccess.inProgressFrames queueingTime:histogram
field count 5
field mean 0.0001462187728
field stddev 5.315025105465e-05
field min 8.8e-05
field max 0.000186099526
field sum 0.000731093864
field sqrsum 1.1819944434438e-07
attr interpolationmode none
attr source queueingTime(packetDequeued)
attr title "queueing times, histogram"
bin	-inf	0
bin	6.2e-05	0
bin	6.4e-05	0
bin	6.6e-05	0
bin	6.8e-05	0
bin	7e-05	0
bin	7.2e-05	0
bin	7.4e-05	0
bin	7.6e-05	0
bin	7.8e-05	0
bin	8e-05	0
bin	8.2e-05	0
bin	8.4e-05	0
bin	8.6e-05	2
bin	8.8e-05	0
bin	9e-05	0
bin	9.2e-05	0
bin	9.4e-05	0
bin	9.6e-05	0
bin	9.8e-05	0
bin	0.0001	0
bin	0.000102	0
bin	0.000104	0
bin	0.000106	0
bin	0.000108	0
bin	0.00011	0
bin	0.000112	0
bin	0.000114	0
bin	0.000116	0
bin	0.000118	0
bin	0.00012	0
bin	0.000122	0
bin	0.000124	0
bin	0.000126	0
bin	0.000128	0
bin	0.00013	0
bin	0.000132	0
bin	0.000134	0
bin	0.000136	0
bin	0.000138	0
bin	0.00014	0
bin	0.000142	0
bin	0.000144	0
bin	0.000146	0
bin	0.000148	0
bin	0.00015	0
bin	0.000152	0
bin	0.000154	0
bin	0.000156	0
bin	0.000158	0
bin	0.00016	0
bin	0.000162	0
bin	0.000164	0
bin	0.000166	0
bin	0.000168	0
bin	0.00017	0
bin	0.000172	0
bin	0.000174	0
bin	0.000176	0
bin	0.000178	0
bin	0.00018	0
bin	0.000182	0
bin	0.000184	2
bin	0.000186	1
bin	0.000188	0
bin	0.00019	0
bin	0.000192	0
bin	0.000194	0
bin	0.000196	0
bin	0.000198	0
bin	0.0002	0
bin	0.000202	0
bin	0.000204	0
bin	0.000206	0
bin	0.000208	0
bin	0.00021	0
bin	0.000212	0
scalar RoutingScenario.node[0].wlan[0].mac.dcf.channelAccess.inProgressFrames queueLength:max 1
attr interpolationmode sample-hold
attr source "count(packetEnqueued) - count(packetDequeued)"
attr title "queue length, max"
scalar RoutingScenario.node[0].wlan[0].mac.dcf.channelAccess.inProgressFrames queueLength:timeavg 6.2003539091729e-05
attr interpolationmode sample-hold
attr source "count(packetEnqueued) - count(packetDequeued)"
attr title "queue length, timeavg"
scalar RoutingScenario.node[0].wlan[0].mac.dcf.channelAccess.contention channelAccessGranted:count 5
attr title "channel access granted, count"
scalar RoutingScenario.node[0].wlan[0].mac.dcf.channelAccess.contention stateChanged:count 166
attr interpolationmode none
attr title "contention state changed, count"
scalar RoutingScenario.node[0].wlan[0].mac.dcf.channelAccess channelOwnershipChanged:count 10
attr interpolationmode sample-hold
attr title "channel ownership, count"
scalar RoutingScenario.node[0].wlan[0].mac.dcf.originatorMacDataService packetAggregated:count 0
attr title "packets aggregated, count"
scalar RoutingScenario.node[0].wlan[0].mac.dcf.originatorMacDataService packetFragmented:count 0
attr title "packets fragmented, count"
scalar RoutingScenario.node[0].wlan[0].mac.dcf.recipientMacDataService packetDeaggregated:count 0
attr title "packets deaggregated, count"
scalar RoutingScenario.node[0].wlan[0].mac.dcf.recipientMacDataService packetDefragmented:count 22
attr title "packets defragmented, count"
scalar RoutingScenario.node[0].wlan[0].mac.dcf.recipientMacDataService packetDropDuplicateDetected:count 0
attr interpolationmode none
attr source packetDropReasonIsDuplicateDetected(packetDropped)
attr title "packet drops: duplicate detected, count"
scalar RoutingScenario.node[0].wlan[0].mac.dcf.recipientMacDataService packetDropDuplicateDetected:sum(packetBytes) 0
attr interpolationmode none
attr source packetDropReasonIsDuplicateDetected(packetDropped)
attr title "packet drops: duplicate detected, sum(packetBytes)"
scalar RoutingScenario.node[0].wlan[0].mac.dcf.recoveryProcedure retryLimitReached:count 0
attr title "retry limit reached, count"
scalar RoutingScenario.node[0].wlan[0].mac.dcf frameSequenceFinished:count 5
attr title "finished frame sequences, count"
statistic RoutingScenario.node[0].wlan[0].mac.dcf frameSequenceDuration:histogram
field count 5
field mean 0.0001462187728
field stddev 5.315025105465e-05
field min 8.8e-05
field max 0.000186099526
field sum 0.000731093864
field sqrsum 1.1819944434438e-07
attr source frameSequenceDuration(frameSequenceFinished)
attr title "frame sequence durations, histogram"
bin	-inf	0
bin	6.2e-05	0
bin	6.4e-05	0
bin	6.6e-05	0
bin	6.8e-05	0
bin	7e-05	0
bin	7.2e-05	0
bin	7.4e-05	0
bin	7.6e-05	0
bin	7.8e-05	0
bin	8e-05	0
bin	8.2e-05	0
bin	8.4e-05	0
bin	8.6e-05	2
bin	8.8e-05	0
bin	9e-05	0
bin	9.2e-05	0
bin	9.4e-05	0
bin	9.6e-05	0
bin	9.8e-05	0
bin	0.0001	0
bin	0.000102	0
bin	0.000104	0
bin	0.000106	0
bin	0.000108	0
bin	0.00011	0
bin	0.000112	0
bin	0.000114	0
bin	0.000116	0
bin	0.000118	0
bin	0.00012	0
bin	0.000122	0
bin	0.000124	0
bin	0.000126	0
bin	0.000128	0
bin	0.00013	0
bin	0.000132	0
bin	0.000134	0
bin	0.000136	0
bin	0.000138	0
bin	0.00014	0
bin	0.000142	0
bin	0.000144	0
bin	0.000146	0
bin	0.000148	0
bin	0.00015	0
bin	0.000152	0
bin	0.000154	0
bin	0.000156	0
bin	0.000158	0
bin	0.00016	0
bin	0.000162	0
bin	0.000164	0
bin	0.000166	0
bin	0.000168	0
bin	0.00017	0
bin	0.000172	0
bin	0.000174	0
bin	0.000176	0
bin	0.000178	0
bin	0.00018	0
bin	0.000182	0
bin	0.000184	2
bin	0.000186	1
bin	0.000188	0
bin	0.00019	0
bin	0.000192	0
bin	0.000194	0
bin	0.000196	0
bin	0.000198	0
bin	0.0002	0
bin	0.000202	0
bin	0.000204	0
bin	0.000206	0
bin	0.000208	0
bin	0.00021	0
bin	0.000212	0
statistic RoutingScenario.node[0].wlan[0].mac.dcf frameSequenceNumPackets:histogram
field count 5
field mean 1.6
field stddev 0.54772255750517
field min 1
field max 2
field sum 8
field sqrsum 14
attr source frameSequenceNumPackets(frameSequenceFinished)
attr title "frame sequences: number of packets, histogram"
bin	-inf	0
bin	0	0
bin	1	2
bin	2	3
bin	3	0
scalar RoutingScenario.node[0].wlan[0].mac.dcf packetReceivedFromPeer:count 25
attr interpolationmode none
attr title "packets received, count"
scalar RoutingScenario.node[0].wlan[0].mac.dcf packetReceivedFromPeer:sum(packetBytes) 1750
attr interpolationmode none
attr title "packets received, sum(packetBytes)"
scalar RoutingScenario.node[0].wlan[0].mac.dcf packetReceivedFromPeerUnicast:count 5
attr interpolationmode none
attr source ieee80211Unicast(packetReceivedFromPeer)
attr title "packets received: unicast, count"
scalar RoutingScenario.node[0].wlan[0].mac.dcf packetReceivedFromPeerUnicast:sum(packetBytes) 158
attr interpolationmode none
attr source ieee80211Unicast(packetReceivedFromPeer)
attr title "packets received: unicast, sum(packetBytes)"
scalar RoutingScenario.node[0].wlan[0].mac.dcf packetReceivedFromPeerMulticast:count 20
attr interpolationmode none
attr source ieee80211Multicast(packetReceivedFromPeer)
attr title "packets received: multicast, count"
scalar RoutingScenario.node[0].wlan[0].mac.dcf packetReceivedFromPeerMulticast:sum(packetBytes) 1592
attr interpolationmode none
attr source ieee80211Multicast(packetReceivedFromPeer)
attr title "packets received: multicast, sum(packetBytes)"
scalar RoutingScenario.node[0].wlan[0].mac.dcf packetReceivedFromPeerBroadcast:count 20
attr interpolationmode none
attr source ieee80211Broadcast(packetReceivedFromPeer)
attr title "packets received: broadcast, count"
scalar RoutingScenario.node[0].wlan[0].mac.dcf packetReceivedFromPeerBroadcast:sum(packetBytes) 1592
attr interpolationmode none
attr source ieee80211Broadcast(packetReceivedFromPeer)
attr title "packets received: broadcast, sum(packetBytes)"
scalar RoutingScenario.node[0].wlan[0].mac.dcf packetReceivedFromPeerWithRetry:count 0
attr interpolationmode none
attr source ieee80211Retry(packetReceivedFromPeer)
attr title "packets received: with retry, count"
scalar RoutingScenario.node[0].wlan[0].mac.dcf packetReceivedFromPeerWithRetry:sum(packetBytes) 0
attr interpolationmode none
attr source ieee80211Retry(packetReceivedFromPeer)
attr title "packets received: with retry, sum(packetBytes)"
scalar RoutingScenario.node[0].wlan[0].mac.dcf packetReceivedFromPeerWithoutRetry:count 25
attr interpolationmode none
attr source ieee80211NotRetry(packetReceivedFromPeer)
attr title "packets received: without retry, count"
scalar RoutingScenario.node[0].wlan[0].mac.dcf packetReceivedFromPeerWithoutRetry:sum(packetBytes) 1750
attr interpolationmode none
attr source ieee80211NotRetry(packetReceivedFromPeer)
attr title "packets received: without retry, sum(packetBytes)"
scalar RoutingScenario.node[0].wlan[0].mac.dcf packetSentToPeer:count 7
attr interpolationmode none
attr title "packets sent, count"
scalar RoutingScenario.node[0].wlan[0].mac.dcf packetSentToPeer:sum(packetBytes) 378
attr interpolationmode none
attr title "packets sent, sum(packetBytes)"
scalar RoutingScenario.node[0].wlan[0].mac.dcf packetSentToPeerUnicast:count 5
attr interpolationmode none
attr source ieee80211Unicast(packetSentToPeer)
attr title "packets sent: unicast, count"
scalar RoutingScenario.node[0].wlan[0].mac.dcf packetSentToPeerUnicast:sum(packetBytes) 262
attr interpolationmode none
attr source ieee80211Unicast(packetSentToPeer)
attr title "packets sent: unicast, sum(packetBytes)"
scalar RoutingScenario.node[0].wlan[0].mac.dcf packetSentToPeerMulticast:count 2
attr interpolationmode none
attr source ieee80211Multicast(packetSentToPeer)
attr title "packets sent: multicast, count"
scalar RoutingScenario.node[0].wlan[0].mac.dcf packetSentToPeerMulticast:sum(packetBytes) 116
attr interpolationmode none
attr source ieee80211Multicast(packetSentToPeer)
attr title "packets sent: multicast, sum(packetBytes)"
scalar RoutingScenario.node[0].wlan[0].mac.dcf packetSentToPeerBroadcast:count 2
attr interpolationmode none
attr source ieee80211Broadcast(packetSentToPeer)
attr title "packets sent: broadcast , count"
scalar RoutingScenario.node[0].wlan[0].mac.dcf packetSentToPeerBroadcast:sum(packetBytes) 116
attr interpolationmode none
attr source ieee80211Broadcast(packetSentToPeer)
attr title "packets sent: broadcast , sum(packetBytes)"
scalar RoutingScenario.node[0].wlan[0].mac.dcf packetSentToPeerWithRetry:count 0
attr interpolationmode none
attr source ieee80211Retry(packetSentToPeer)
attr title "packets sent: with retry, count"
scalar RoutingScenario.node[0].wlan[0].mac.dcf packetSentToPeerWithRetry:sum(packetBytes) 0
attr interpolationmode none
attr source ieee80211Retry(packetSentToPeer)
attr title "packets sent: with retry, sum(packetBytes)"
scalar RoutingScenario.node[0].wlan[0].mac.dcf packetSentToPeerWithoutRetry:count 7
attr interpolationmode none
attr source ieee80211NotRetry(packetSentToPeer)
attr title "packets sent: without retry, count"
scalar RoutingScenario.node[0].wlan[0].mac.dcf packetSentToPeerWithoutRetry:sum(packetBytes) 378
attr interpolationmode none
attr source ieee80211NotRetry(packetSentToPeer)
attr title "packets sent: without retry, sum(packetBytes)"
scalar RoutingScenario.node[0].wlan[0].mac.dcf packetDrop:count 6
attr interpolationmode none
attr source packetDropped
attr title "packet drops, count"
scalar RoutingScenario.node[0].wlan[0].mac.dcf packetDrop:sum(packetBytes) 256
attr interpolationmode none
attr source packetDropped
attr title "packet drops, sum(packetBytes)"
scalar RoutingScenario.node[0].wlan[0].mac.dcf packetDropNotAddressedToUs:count 6
attr interpolationmode none
attr source packetDropReasonIsNotAddressedToUs(packetDropped)
attr title "packet drops: not addressed to us, count"
scalar RoutingScenario.node[0].wlan[0].mac.dcf packetDropNotAddressedToUs:sum(packetBytes) 256
attr interpolationmode none
attr source packetDropReasonIsNotAddressedToUs(packetDropped)
attr title "packet drops: not addressed to us, sum(packetBytes)"
scalar RoutingScenario.node[0].wlan[0].mac.dcf packetDropQueueOverflow:count 0
attr interpolationmode none
attr source packetDropReasonIsQueueOverflow(packetDropped)
attr title "packet drops: queue overflow, count"
scalar RoutingScenario.node[0].wlan[0].mac.dcf packetDropQueueOverflow:sum(packetBytes) 0
attr interpolationmode none
attr source packetDropReasonIsQueueOverflow(packetDropped)
attr title "packet drops: queue overflow, sum(packetBytes)"
scalar RoutingScenario.node[0].wlan[0].mac.dcf packetDropRetryLimitReached:count 0
attr interpolationmode none
attr source packetDropReasonIsRetryLimitReached(packetDropped)
attr title "packet drops: retry limit reached, count"
scalar RoutingScenario.node[0].wlan[0].mac.dcf packetDropRetryLimitReached:sum(packetBytes) 0
attr interpolationmode none
attr source packetDropReasonIsRetryLimitReached(packetDropped)
attr title "packet drops: retry limit reached, sum(packetBytes)"
scalar RoutingScenario.node[0].wlan[0].mac.dcf linkBroken:count 0
attr interpolationmode none
attr title "link breaks, count"
scalar RoutingScenario.node[0].wlan[0].mac packetReceivedFromLower:count 31
attr interpolationmode none
attr title "packets received from lower layer, count"
scalar RoutingScenario.node[0].wlan[0].mac packetReceivedFromLower:sum(packetBytes) 2006
attr interpolationmode none
attr title "packets received from lower layer, sum(packetBytes)"
scalar RoutingScenario.node[0].wlan[0].mac packetSentToLower:count 7
attr interpolationmode none
attr title "packets sent to lower layer, count"
scalar RoutingScenario.node[0].wlan[0].mac packetSentToLower:sum(packetBytes) 378
attr interpolationmode none
attr title "packets sent to lower layer, sum(packetBytes)"
scalar RoutingScenario.node[0].wlan[0].mac packetReceivedFromUpper:count 5
attr interpolationmode none
attr title "packets received from upper layer, count"
scalar RoutingScenario.node[0].wlan[0].mac packetReceivedFromUpper:sum(packetBytes) 210
attr interpolationmode none
attr title "packets received from upper layer, sum(packetBytes)"
scalar RoutingScenario.node[0].wlan[0].mac packetSentToUpper:count 22
attr interpolationmode none
attr title "packets sent to upper layer, count"
scalar RoutingScenario.node[0].wlan[0].mac packetSentToUpper:sum(packetBytes) 1092
attr interpolationmode none
attr title "packets sent to upper layer, sum(packetBytes)"
scalar RoutingScenario.node[0].wlan[0].mac packetDrop:count 6
attr interpolationmode none
attr source packetDropped
attr title "packet drops, count"
scalar RoutingScenario.node[0].wlan[0].mac packetDrop:sum(packetBytes) 256
attr interpolationmode none
attr source packetDropped
attr title "packet drops, sum(packetBytes)"
scalar RoutingScenario.node[0].wlan[0].mac packetDropIncorrectlyReceived:count 0
attr interpolationmode none
attr source packetDropReasonIsIncorrectlyReceived(packetDropped)
attr title "packet drops: incorrectly received, count"
scalar RoutingScenario.node[0].wlan[0].mac packetDropIncorrectlyReceived:sum(packetBytes) 0
attr interpolationmode none
attr source packetDropReasonIsIncorrectlyReceived(packetDropped)
attr title "packet drops: incorrectly received, sum(packetBytes)"
scalar RoutingScenario.node[0].wlan[0].mac packetDropNotAddressedToUs:count 6
attr interpolationmode none
attr source packetDropReasonIsNotAddressedToUs(packetDropped)
attr title "packet drops: not addressed to us, count"
scalar RoutingScenario.node[0].wlan[0].mac packetDropNotAddressedToUs:sum(packetBytes) 256
attr interpolationmode none
attr source packetDropReasonIsNotAddressedToUs(packetDropped)
attr title "packet drops: not addressed to us, sum(packetBytes)"
scalar RoutingScenario.node[0].wlan[0].mac packetDropQueueOverflow:count 0
attr interpolationmode none
attr source packetDropReasonIsQueueOverflow(packetDropped)
attr title "packet drops: queue overflow, count"
scalar RoutingScenario.node[0].wlan[0].mac packetDropQueueOverflow:sum(packetBytes) 0
attr interpolationmode none
attr source packetDropReasonIsQueueOverflow(packetDropped)
attr title "packet drops: queue overflow, sum(packetBytes)"
scalar RoutingScenario.node[0].wlan[0].mac packetDropRetryLimitReached:count 0
attr interpolationmode none
attr source packetDropReasonIsRetryLimitReached(packetDropped)
attr title "packet drops: retry limit reached, count"
scalar RoutingScenario.node[0].wlan[0].mac packetDropRetryLimitReached:sum(packetBytes) 0
attr interpolationmode none
attr source packetDropReasonIsRetryLimitReached(packetDropped)
attr title "packet drops: retry limit reached, sum(packetBytes)"
scalar RoutingScenario.node[0].wlan[0].mac packetDropDuplicateDetected:count 0
attr interpolationmode none
attr source packetDropReasonIsDuplicateDetected(packetDropped)
attr title "packet drops: duplicate detected, count"
scalar RoutingScenario.node[0].wlan[0].mac packetDropDuplicateDetected:sum(packetBytes) 0
attr interpolationmode none
attr source packetDropReasonIsDuplicateDetected(packetDropped)
attr title "packet drops: duplicate detected, sum(packetBytes)"
scalar RoutingScenario.node[0].wlan[0].mac packetDropOther:count 0
attr interpolationmode none
attr source packetDropReasonIsOther(packetDropped)
attr title "packet drops: other, count"
scalar RoutingScenario.node[0].wlan[0].mac packetDropOther:sum(packetBytes) 0
attr interpolationmode none
attr source packetDropReasonIsOther(packetDropped)
attr title "packet drops: other, sum(packetBytes)"
scalar RoutingScenario.node[0].wlan[0].mac linkBroken:count 0
attr interpolationmode none
attr title "link breaks, count"
statistic RoutingScenario.node[0].wlan[0].radio radioChannel:histogram
field count 1
field mean 3
field stddev -nan
field min 3
field max 3
field sum 3
field sqrsum 9
attr interpolationmode sample-hold
attr source radioChannelChanged
attr title "Radio channel, histogram"
bin	-inf	0
bin	2	0
bin	3	1
bin	4	0
scalar RoutingScenario.node[0].wlan[0].radio radioMode:count 17
attr interpolationmode sample-hold
attr source radioModeChanged
attr title "Radio mode, count"
scalar RoutingScenario.node[0].wlan[0].radio receptionState:count 77
attr interpolationmode sample-hold
attr source receptionStateChanged
attr title "Radio reception state, count"
scalar RoutingScenario.node[0].wlan[0].radio transmissionState:count 28
attr interpolationmode sample-hold
attr source transmissionStateChanged
attr title "Radio transmission state, count"
statistic RoutingScenario.node[0].wlan[0].radio minSnir:histogram
field count 31
field mean 1828.2348440423
field stddev 2642.9446082041
field min 20.558972793627
field max 6728.2899819547
field sum 56675.280165312
field sqrsum 313170408.05514
attr source minimumSnir(packetSentToUpper)
attr title "Min SNIR, histogram"
bin	-inf	0
bin	0	2
bin	100	0
bin	200	1
bin	300	20
bin	400	0
bin	500	0
bin	600	0
bin	700	0
bin	800	0
bin	900	0
bin	1000	0
bin	1100	0
bin	1200	0
bin	1300	0
bin	1400	0
bin	1500	0
bin	1600	0
bin	1700	0
bin	1800	0
bin	1900	0
bin	2000	0
bin	2100	0
bin	2200	0
bin	2300	0
bin	2400	0
bin	2500	0
bin	2600	0
bin	2700	0
bin	2800	0
bin	2900	0
bin	3000	0
bin	3100	0
bin	3200	0
bin	3300	0
bin	3400	0
bin	3500	0
bin	3600	0
bin	3700	0
bin	3800	0
bin	3900	0
bin	4000	0
bin	4100	0
bin	4200	0
bin	4300	0
bin	4400	0
bin	4500	0
bin	4600	0
bin	4700	0
bin	4800	0
bin	4900	0
bin	5000	0
bin	5100	0
bin	5200	0
bin	5300	0
bin	5400	0
bin	5500	0
bin	5600	0
bin	5700	2
bin	5800	1
bin	5900	1
bin	6000	0
bin	6100	0
bin	6200	0
bin	6300	0
bin	6400	0
bin	6500	2
bin	6600	1
bin	6700	1
bin	6800	0
bin	6900	0
bin	7000	0
bin	7100	0
bin	7200	0
bin	7300	0
bin	7400	0
bin	7500	0
bin	7600	0
bin	7700	0
bin	7800	0
bin	7900	0
bin	8000	0
bin	8100	0
bin	8200	0
bin	8300	0
bin	8400	0
bin	8500	0
statistic RoutingScenario.node[0].wlan[0].radio packetErrorRate:histogram
field count 31
field mean 0.00071782922150146
field stddev 0.0039967039580738
field min 0
field max 0.022252705866545
field sum 0.022252705866545
field sqrsum 0.00049518291838297
attr source packetErrorRate(packetSentToUpper)
attr title "Packet error rate, histogram"
bin	-inf	0
bin	0	30
bin	0.0005	0
bin	0.001	0
bin	0.0015	0
bin	0.002	0
bin	0.0025	0
bin	0.003	0
bin	0.0035	0
bin	0.004	0
bin	0.0045	0
bin	0.005	0
bin	0.0055	0
bin	0.006	0
bin	0.0065	0
bin	0.007	0
bin	0.0075	0
bin	0.008	0
bin	0.0085	0
bin	0.009	0
bin	0.0095	0
bin	0.01	0
bin	0.0105	0
bin	0.011	0
bin	0.0115	0
bin	0.012	0
bin	0.0125	0
bin	0.013	0
bin	0.0135	0
bin	0.014	0
bin	0.0145	0
bin	0.015	0
bin	0.0155	0
bin	0.016	0
bin	0.0165	0
bin	0.017	0
bin	0.0175	0
bin	0.018	0
bin	0.0185	0
bin	0.019	0
bin	0.0195	0
bin	0.02	0
bin	0.0205	0
bin	0.021	0
bin	0.0215	0
bin	0.022	1
bin	0.0225	0
bin	0.023	0
bin	0.0235	0
bin	0.024	0
bin	0.0245	0
bin	0.025	0
bin	0.0255	0
bin	0.026	0
bin	0.0265	0
bin	0.027	0
bin	0.0275	0
bin	0.028	0
statistic RoutingScenario.node[0].wlan[0].radio bitErrorRate:histogram
field count 0
field mean -nan
field stddev nan
field min nan
field max nan
field sum 0
field sqrsum 0
attr source bitErrorRate(packetSentToUpper)
attr title "Bit error rate, histogram"
bin	-inf	0
bin	0	0
bin	1	0
statistic RoutingScenario.node[0].wlan[0].radio symbolErrorRate:histogram
field count 0
field mean -nan
field stddev nan
field min nan
field max nan
field sum 0
field sqrsum 0
attr source symbolErrorRate(packetSentToUpper)
attr title "Symbol error rate, histogram"
bin	-inf	0
bin	0	0
bin	1	0
scalar RoutingScenario.node[0].ipv4.ip packetDropAddressResolutionFailed:count 0
attr interpolationmode none
attr source packetDropReasonIsAddressResolutionFailed(packetDropped)
attr title "packet drop: address resolution failed, count"
scalar RoutingScenario.node[0].ipv4.ip packetDropAddressResolutionFailed:sum(packetBytes) 0
attr interpolationmode none
attr source packetDropReasonIsAddressResolutionFailed(packetDropped)
attr title "packet drop: address resolution failed, sum(packetBytes)"
scalar RoutingScenario.node[0].ipv4.ip packetDropHopLimitReached:count 0
attr interpolationmode none
attr source packetDropReasonIsHopLimitReached(packetDropped)
attr title "packet drop: hop limit reached, count"
scalar RoutingScenario.node[0].ipv4.ip packetDropHopLimitReached:sum(packetBytes) 0
attr interpolationmode none
attr source packetDropReasonIsHopLimitReached(packetDropped)
attr title "packet drop: hop limit reached, sum(packetBytes)"
scalar RoutingScenario.node[0].ipv4.ip packetDropForwardingDisabled:count 0
attr interpolationmode none
attr source packetDropReasonIsForwardingDisabled(packetDropped)
attr title "packet drop: forwarding disabled, count"
scalar RoutingScenario.node[0].ipv4.ip packetDropForwardingDisabled:sum(packetBytes) 0
attr interpolationmode none
attr source packetDropReasonIsForwardingDisabled(packetDropped)
attr title "packet drop: forwarding disabled, sum(packetBytes)"
scalar RoutingScenario.node[0].ipv4.ip packetDropNoInterfaceFound:count 0
attr interpolationmode none
attr source packetDropReasonIsNoInterfaceFound(packetDropped)
attr title "packet drop: no interface found, count"
scalar RoutingScenario.node[0].ipv4.ip packetDropNoInterfaceFound:sum(packetBytes) 0
attr interpolationmode none
attr source packetDropReasonIsNoInterfaceFound(packetDropped)
attr title "packet drop: no interface found, sum(packetBytes)"
scalar RoutingScenario.node[0].ipv4.ip packetDropNoRouteFound:count 0
attr interpolationmode none
attr source packetDropReasonIsNoRouteFound(packetDropped)
attr title "packet drop: no route found, count"
scalar RoutingScenario.node[0].ipv4.ip packetDropNoRouteFound:sum(packetBytes) 0
attr interpolationmode none
attr source packetDropReasonIsNoRouteFound(packetDropped)
attr title "packet drop: no route found, sum(packetBytes)"
scalar RoutingScenario.node[0].ipv4.ip packetDropUndefined:count 0
attr interpolationmode none
attr source packetDropReasonIsUndefined(packetDropped)
attr title "packet drop: undefined, count"
scalar RoutingScenario.node[0].ipv4.ip packetDropUndefined:sum(packetBytes) 0
attr interpolationmode none
attr source packetDropReasonIsUndefined(packetDropped)
attr title "packet drop: undefined, sum(packetBytes)"
scalar RoutingScenario.node[0].ipv4.arp arpResolutionFailed:count 0
attr title "ARP failed resolutions, count"
scalar RoutingScenario.node[0].ipv4.arp arpResolutionCompleted:count 2
attr title "ARP completed resolutions, count"
scalar RoutingScenario.node[0].ipv4.arp arpResolutionInitiated:count 2
attr title "ARP initiated resolutions, count"
scalar RoutingScenario.node[0].ipv4.arp arpReplySent:count 0
attr source arpReplySent
attr title "ARP replies sent, count"
scalar RoutingScenario.node[0].ipv4.arp arpReplySent:sum(packetBytes) 0
attr source arpReplySent
attr title "ARP replies sent, sum(packetBytes)"
scalar RoutingScenario.node[0].ipv4.arp arpRequestSent:count 2
attr source arpRequestSent
attr title "ARP request sent, count"
scalar RoutingScenario.node[0].ipv4.arp arpRequestSent:sum(packetBytes) 56
attr source arpRequestSent
attr title "ARP request sent, sum(packetBytes)"
scalar RoutingScenario.node[0].udp packetReceived:count 1023
attr interpolationmode none
attr source packetReceived
attr title "packets received, count"
scalar RoutingScenario.node[0].udp packetReceived:sum(packetBytes) 1013616
attr interpolationmode none
attr source packetReceived
attr title "packets received, sum(packetBytes)"
scalar RoutingScenario.node[0].udp packetSent:count 1008
attr interpolationmode none
attr source packetSent
attr title "packets sent, count"
scalar RoutingScenario.node[0].udp packetSent:sum(packetBytes) 1013124
attr interpolationmode none
attr source packetSent
attr title "packets sent, sum(packetBytes)"
scalar RoutingScenario.node[0].udp passedUpPk:count 18
attr interpolationmode none
attr source packetSentToUpper
attr title "packets passed up, count"
scalar RoutingScenario.node[0].udp droppedPkWrongPort:count 1005
attr interpolationmode none
attr source packetDropReasonIsNoPortFound(packetDropped)
attr title "packets dropped (wrong port), count"
scalar RoutingScenario.node[0].udp droppedPkBadChecksum:count 0
attr interpolationmode none
attr source packetDropReasonIsIncorrectlyReceived(packetDropped)
attr title "packets dropped (checksum error), count"
scalar RoutingScenario.node[0].app[0] "packets sent" 1005
scalar RoutingScenario.node[0].app[0] "packets received" 0
scalar RoutingScenario.node[0].app[0] packetReceived:count 0
attr interpolationmode none
attr source packetReceived
attr title "packets received, count"
scalar RoutingScenario.node[0].app[0] packetReceived:sum(packetBytes) 0
attr interpolationmode none
attr source packetReceived
attr title "packets received, sum(packetBytes)"
statistic RoutingScenario.node[0].app[0] rcvdPkLifetime:stats
field count 0
field mean -nan
field stddev nan
field min nan
field max nan
field sum 0
field sqrsum 0
attr interpolationmode none
attr source dataAge(packetReceived)
attr title "received packet lifetime, stats"
attr unit s
scalar RoutingScenario.node[0].app[0] packetSent:count 1005
attr interpolationmode none
attr source packetSent
attr title "packets sent, count"
scalar RoutingScenario.node[0].app[0] packetSent:sum(packetBytes) 1005000
attr interpolationmode none
attr source packetSent
attr title "packets sent, sum(packetBytes)"
scalar RoutingScenario.node[1].lo[0].lo rcvdPkFromHl:count 0
attr interpolationmode none
attr source packetReceivedFromUpper
attr title "packets received from higher layer, count"
scalar RoutingScenario.node[1].lo[0].lo rcvdPkFromHl:sum(packetBytes) 0
attr interpolationmode none
attr source packetReceivedFromUpper
attr title "packets received from higher layer, sum(packetBytes)"
scalar RoutingScenario.node[1].lo[0].lo passedUpPk:count 0
attr interpolationmode none
attr source packetSentToUpper
attr title "packets passed to higher layer, count"
scalar RoutingScenario.node[1].lo[0].lo passedUpPk:sum(packetBytes) 0
attr interpolationmode none
attr source packetSentToUpper
attr title "packets passed to higher layer, sum(packetBytes)"
scalar RoutingScenario.node[1].wlan[0].mac.dcf.channelAccess.pendingQueue packetPopped:count 11
attr interpolationmode none
attr title "packet popped, count"
scalar RoutingScenario.node[1].wlan[0].mac.dcf.channelAccess.pendingQueue packetPopped:sum(packetBytes) 878
attr interpolationmode none
attr title "packet popped, sum(packetBytes)"
statistic RoutingScenario.node[1].wlan[0].mac.dcf.channelAccess.pendingQueue queueingTime:histogram
field count 11
field mean 1.1772018090909e-05
field stddev 3.3099186262801e-05
field min 0
field max 0.00011
field sum 0.000129492199
field sqrsum 1.2479945821856e-08
attr interpolationmode none
attr source queueingTime(packetPopped)
attr title "queueing times, histogram"
attr unit s
bin	-inf	0
bin	0	9
bin	2e-06	0
bin	4e-06	0
bin	6e-06	0
bin	8e-06	0
bin	1e-05	0
bin	1.2e-05	0
bin	1.4e-05	0
bin	1.6e-05	0
bin	1.8e-05	1
bin	2e-05	0
bin	2.2e-05	0
bin	2.4e-05	0
bin	2.6e-05	0
bin	2.8e-05	0
bin	3e-05	0
bin	3.2e-05	0
bin	3.4e-05	0
bin	3.6e-05	0
bin	3.8e-05	0
bin	4e-05	0
bin	4.2e-05	0
bin	4.4e-05	0
bin	4.6e-05	0
bin	4.8e-05	0
bin	5e-05	0
bin	5.2e-05	0
bin	5.4e-05	0
bin	5.6e-05	0
bin	5.8e-05	0
bin	6e-05	0
bin	6.2e-05	0
bin	6.4e-05	0
bin	6.6e-05	0
bin	6.8e-05	0
bin	7e-05	0
bin	7.2e-05	0
bin	7.4e-05	0
bin	7.6e-05	0
bin	7.8e-05	0
bin	8e-05	0
bin	8.2e-05	0
bin	8.4e-05	0
bin	8.6e-05	0
bin	8.8e-05	0
bin	9e-05	0
bin	9.2e-05	0
bin	9.4e-05	0
bin	9.6e-05	0
bin	9.8e-05	0
bin	0.0001	0
bin	0.000102	0
bin	0.000104	0
bin	0.000106	0
bin	0.000108	1
bin	0.00011	0
bin	0.000112	0
bin	0.000114	0
bin	0.000116	0
bin	0.000118	0
bin	0.00012	0
bin	0.000122	0
bin	0.000124	0
bin	0.000126	0
bin	0.000128	0
bin	0.00013	0
bin	0.000132	0
bin	0.000134	0
bin	0.000136	0
bin	0.000138	0
scalar RoutingScenario.node[1].wlan[0].mac.dcf.channelAccess.pendingQueue queueLength:max 1
attr interpolationmode sample-hold
attr source "count(packetPushed) - count(packetPopped) - count(packetRemoved) - count(packetDropped)"
attr title "queue length, max"
scalar RoutingScenario.node[1].wlan[0].mac.dcf.channelAccess.pendingQueue queueLength:timeavg 1.0892202018821e-05
attr interpolationmode sample-hold
attr source "count(packetPushed) - count(packetPopped) - count(packetRemoved) - count(packetDropped)"
attr title "queue length, timeavg"
scalar RoutingScenario.node[1].wlan[0].mac.dcf.channelAccess.pendingQueue packetPushed:count 11
attr interpolationmode none
attr title "packet pushed, count"
scalar RoutingScenario.node[1].wlan[0].mac.dcf.channelAccess.pendingQueue packetPushed:sum(packetBytes) 878
attr interpolationmode none
attr title "packet pushed, sum(packetBytes)"
scalar RoutingScenario.node[1].wlan[0].mac.dcf.channelAccess.pendingQueue packetDropQueueOverflow:count 0
attr interpolationmode none
attr source packetDropReasonIsQueueOverflow(packetDropped)
attr title "packet drops: queue overflow, count"
scalar RoutingScenario.node[1].wlan[0].mac.dcf.channelAccess.pendingQueue packetDropQueueOverflow:sum(packetBytes) 0
attr interpolationmode none
attr source packetDropReasonIsQueueOverflow(packetDropped)
attr title "packet drops: queue overflow, sum(packetBytes)"
scalar RoutingScenario.node[1].wlan[0].mac.dcf.channelAccess.pendingQueue packetRemoved:count 0
attr interpolationmode none
attr title "packets removed, count"
scalar RoutingScenario.node[1].wlan[0].mac.dcf.channelAccess.pendingQueue packetRemoved:sum(packetBytes) 0
attr interpolationmode none
attr title "packets removed, sum(packetBytes)"
statistic RoutingScenario.node[1].wlan[0].mac.dcf.channelAccess.inProgressFrames queueingTime:histogram
field count 11
field mean 0.00013670521236364
field stddev 0.00010847091809907
field min 0.000104
field max 0.000463757336
field sum 0.001503757336
field sqrsum 3.2323086669382e-07
attr interpolationmode none
attr source queueingTime(packetDequeued)
attr title "queueing times, histogram"
bin	-inf	0
bin	1e-05	0
bin	2e-05	0
bin	3e-05	0
bin	4e-05	0
bin	5e-05	0
bin	6e-05	0
bin	7e-05	0
bin	8e-05	0
bin	9e-05	0
bin	0.0001	10
bin	0.00011	0
bin	0.00012	0
bin	0.00013	0
bin	0.00014	0
bin	0.00015	0
bin	0.00016	0
bin	0.00017	0
bin	0.00018	0
bin	0.00019	0
bin	0.0002	0
bin	0.00021	0
bin	0.00022	0
bin	0.00023	0
bin	0.00024	0
bin	0.00025	0
bin	0.00026	0
bin	0.00027	0
bin	0.00028	0
bin	0.00029	0
bin	0.0003	0
bin	0.00031	0
bin	0.00032	0
bin	0.00033	0
bin	0.00034	0
bin	0.00035	0
bin	0.00036	0
bin	0.00037	0
bin	0.00038	0
bin	0.00039	0
bin	0.0004	0
bin	0.00041	0
bin	0.00042	0
bin	0.00043	0
bin	0.00044	0
bin	0.00045	0
bin	0.00046	1
bin	0.00047	0
bin	0.00048	0
bin	0.00049	0
bin	0.0005	0
bin	0.00051	0
bin	0.00052	0
bin	0.00053	0
bin	0.00054	0
bin	0.00055	0
bin	0.00056	0
scalar RoutingScenario.node[1].wlan[0].mac.dcf.channelAccess.inProgressFrames queueLength:max 1
attr interpolationmode sample-hold
attr source "count(packetEnqueued) - count(packetDequeued)"
attr title "queue length, max"
scalar RoutingScenario.node[1].wlan[0].mac.dcf.channelAccess.inProgressFrames queueLength:timeavg 0.00012648835738834
attr interpolationmode sample-hold
attr source "count(packetEnqueued) - count(packetDequeued)"
attr title "queue length, timeavg"
scalar RoutingScenario.node[1].wlan[0].mac.dcf.channelAccess.contention channelAccessGranted:count 12
attr title "channel access granted, count"
scalar RoutingScenario.node[1].wlan[0].mac.dcf.channelAccess.contention stateChanged:count 580
attr interpolationmode none
attr title "contention state changed, count"
scalar RoutingScenario.node[1].wlan[0].mac.dcf.channelAccess channelOwnershipChanged:count 24
attr interpolationmode sample-hold
attr title "channel ownership, count"
scalar RoutingScenario.node[1].wlan[0].mac.dcf.originatorMacDataService packetAggregated:count 0
attr title "packets aggregated, count"
scalar RoutingScenario.node[1].wlan[0].mac.dcf.originatorMacDataService packetFragmented:count 0
attr title "packets fragmented, count"
scalar RoutingScenario.node[1].wlan[0].mac.dcf.recipientMacDataService packetDeaggregated:count 0
attr title "packets deaggregated, count"
scalar RoutingScenario.node[1].wlan[0].mac.dcf.recipientMacDataService packetDefragmented:count 59
attr title "packets defragmented, count"
scalar RoutingScenario.node[1].wlan[0].mac.dcf.recipientMacDataService packetDropDuplicateDetected:count 0
attr interpolationmode none
attr source packetDropReasonIsDuplicateDetected(packetDropped)
attr title "packet drops: duplicate detected, count"
scalar RoutingScenario.node[1].wlan[0].mac.dcf.recipientMacDataService packetDropDuplicateDetected:sum(packetBytes) 0
attr interpolationmode none
attr source packetDropReasonIsDuplicateDetected(packetDropped)
attr title "packet drops: duplicate detected, sum(packetBytes)"
scalar RoutingScenario.node[1].wlan[0].mac.dcf.recoveryProcedure retryLimitReached:count 0
attr title "retry limit reached, count"
scalar RoutingScenario.node[1].wlan[0].mac.dcf frameSequenceFinished:count 12
attr title "finished frame sequences, count"
statistic RoutingScenario.node[1].wlan[0].mac.dcf frameSequenceDuration:histogram
field count 12
field mean 0.00011664644466667
field stddev 2.9549579079193e-05
field min 0.000104
field max 0.000182
field sum 0.001399757336
field sqrsum 1.7288167050182e-07
attr source frameSequenceDuration(frameSequenceFinished)
attr title "frame sequence durations, histogram"
bin	-inf	0
bin	8.4e-05	0
bin	8.6e-05	0
bin	8.8e-05	0
bin	9e-05	0
bin	9.2e-05	0
bin	9.4e-05	0
bin	9.6e-05	0
bin	9.8e-05	0
bin	0.0001	0
bin	0.000102	10
bin	0.000104	0
bin	0.000106	0
bin	0.000108	0
bin	0.00011	0
bin	0.000112	0
bin	0.000114	0
bin	0.000116	0
bin	0.000118	0
bin	0.00012	0
bin	0.000122	0
bin	0.000124	0
bin	0.000126	0
bin	0.000128	0
bin	0.00013	0
bin	0.000132	0
bin	0.000134	0
bin	0.000136	0
bin	0.000138	0
bin	0.00014	0
bin	0.000142	0
bin	0.000144	0
bin	0.000146	0
bin	0.000148	0
bin	0.00015	0
bin	0.000152	0
bin	0.000154	0
bin	0.000156	0
bin	0.000158	0
bin	0.00016	0
bin	0.000162	0
bin	0.000164	0
bin	0.000166	0
bin	0.000168	0
bin	0.00017	0
bin	0.000172	0
bin	0.000174	0
bin	0.000176	1
bin	0.000178	0
bin	0.00018	1
bin	0.000182	0
bin	0.000184	0
bin	0.000186	0
bin	0.000188	0
bin	0.00019	0
bin	0.000192	0
bin	0.000194	0
bin	0.000196	0
bin	0.000198	0
bin	0.0002	0
bin	0.000202	0
statistic RoutingScenario.node[1].wlan[0].mac.dcf frameSequenceNumPackets:histogram
field count 12
field mean 1.1666666666667
field stddev 0.38924947208076
field min 1
field max 2
field sum 14
field sqrsum 18
attr source frameSequenceNumPackets(frameSequenceFinished)
attr title "frame sequences: number of packets, histogram"
bin	-inf	0
bin	0	0
bin	1	10
bin	2	2
bin	3	0
scalar RoutingScenario.node[1].wlan[0].mac.dcf packetReceivedFromPeer:count 60
attr interpolationmode none
attr title "packets received, count"
scalar RoutingScenario.node[1].wlan[0].mac.dcf packetReceivedFromPeer:sum(packetBytes) 4648
attr interpolationmode none
attr title "packets received, sum(packetBytes)"
scalar RoutingScenario.node[1].wlan[0].mac.dcf packetReceivedFromPeerUnicast:count 4
attr interpolationmode none
attr source ieee80211Unicast(packetReceivedFromPeer)
attr title "packets received: unicast, count"
scalar RoutingScenario.node[1].wlan[0].mac.dcf packetReceivedFromPeerUnicast:sum(packetBytes) 248
attr interpolationmode none
attr source ieee80211Unicast(packetReceivedFromPeer)
attr title "packets received: unicast, sum(packetBytes)"
scalar RoutingScenario.node[1].wlan[0].mac.dcf packetReceivedFromPeerMulticast:count 56
attr interpolationmode none
attr source ieee80211Multicast(packetReceivedFromPeer)
attr title "packets received: multicast, count"
scalar RoutingScenario.node[1].wlan[0].mac.dcf packetReceivedFromPeerMulticast:sum(packetBytes) 4400
attr interpolationmode none
attr source ieee80211Multicast(packetReceivedFromPeer)
attr title "packets received: multicast, sum(packetBytes)"
scalar RoutingScenario.node[1].wlan[0].mac.dcf packetReceivedFromPeerBroadcast:count 56
attr interpolationmode none
attr source ieee80211Broadcast(packetReceivedFromPeer)
attr title "packets received: broadcast, count"
scalar RoutingScenario.node[1].wlan[0].mac.dcf packetReceivedFromPeerBroadcast:sum(packetBytes) 4400
attr interpolationmode none
attr source ieee80211Broadcast(packetReceivedFromPeer)
attr title "packets received: broadcast, sum(packetBytes)"
scalar RoutingScenario.node[1].wlan[0].mac.dcf packetReceivedFromPeerWithRetry:count 1
attr interpolationmode none
attr source ieee80211Retry(packetReceivedFromPeer)
attr title "packets received: with retry, count"
scalar RoutingScenario.node[1].wlan[0].mac.dcf packetReceivedFromPeerWithRetry:sum(packetBytes) 78
attr interpolationmode none
attr source ieee80211Retry(packetReceivedFromPeer)
attr title "packets received: with retry, sum(packetBytes)"
scalar RoutingScenario.node[1].wlan[0].mac.dcf packetReceivedFromPeerWithoutRetry:count 59
attr interpolationmode none
attr source ieee80211NotRetry(packetReceivedFromPeer)
attr title "packets received: without retry, count"
scalar RoutingScenario.node[1].wlan[0].mac.dcf packetReceivedFromPeerWithoutRetry:sum(packetBytes) 4570
attr interpolationmode none
attr source ieee80211NotRetry(packetReceivedFromPeer)
attr title "packets received: without retry, sum(packetBytes)"
scalar RoutingScenario.node[1].wlan[0].mac.dcf packetSentToPeer:count 15
attr interpolationmode none
attr title "packets sent, count"
scalar RoutingScenario.node[1].wlan[0].mac.dcf packetSentToPeer:sum(packetBytes) 978
attr interpolationmode none
attr title "packets sent, sum(packetBytes)"
scalar RoutingScenario.node[1].wlan[0].mac.dcf packetSentToPeerUnicast:count 5
attr interpolationmode none
attr source ieee80211Unicast(packetSentToPeer)
attr title "packets sent: unicast, count"
scalar RoutingScenario.node[1].wlan[0].mac.dcf packetSentToPeerUnicast:sum(packetBytes) 158
attr interpolationmode none
attr source ieee80211Unicast(packetSentToPeer)
attr title "packets sent: unicast, sum(packetBytes)"
scalar RoutingScenario.node[1].wlan[0].mac.dcf packetSentToPeerMulticast:count 10
attr interpolationmode none
attr source ieee80211Multicast(packetSentToPeer)
attr title "packets sent: multicast, count"
scalar RoutingScenario.node[1].wlan[0].mac.dcf packetSentToPeerMulticast:sum(packetBytes) 820
attr interpolationmode none
attr source ieee80211Multicast(packetSentToPeer)
attr title "packets sent: multicast, sum(packetBytes)"
scalar RoutingScenario.node[1].wlan[0].mac.dcf packetSentToPeerBroadcast:count 10
attr interpolationmode none
attr source ieee80211Broadcast(packetSentToPeer)
attr title "packets sent: broadcast , count"
scalar RoutingScenario.node[1].wlan[0].mac.dcf packetSentToPeerBroadcast:sum(packetBytes) 820
attr interpolationmode none
attr source ieee80211Broadcast(packetSentToPeer)
attr title "packets sent: broadcast , sum(packetBytes)"
scalar RoutingScenario.node[1].wlan[0].mac.dcf packetSentToPeerWithRetry:count 1
attr interpolationmode none
attr source ieee80211Retry(packetSentToPeer)
attr title "packets sent: with retry, count"
scalar RoutingScenario.node[1].wlan[0].mac.dcf packetSentToPeerWithRetry:sum(packetBytes) 58
attr interpolationmode none
attr source ieee80211Retry(packetSentToPeer)
attr title "packets sent: with retry, sum(packetBytes)"
scalar RoutingScenario.node[1].wlan[0].mac.dcf packetSentToPeerWithoutRetry:count 14
attr interpolationmode none
attr source ieee80211NotRetry(packetSentToPeer)
attr title "packets sent: without retry, count"
scalar RoutingScenario.node[1].wlan[0].mac.dcf packetSentToPeerWithoutRetry:sum(packetBytes) 920
attr interpolationmode none
attr source ieee80211NotRetry(packetSentToPeer)
attr title "packets sent: without retry, sum(packetBytes)"
scalar RoutingScenario.node[1].wlan[0].mac.dcf packetDrop:count 45
attr interpolationmode none
attr source packetDropped
attr title "packet drops, count"
scalar RoutingScenario.node[1].wlan[0].mac.dcf packetDrop:sum(packetBytes) 2130
attr interpolationmode none
attr source packetDropped
attr title "packet drops, sum(packetBytes)"
scalar RoutingScenario.node[1].wlan[0].mac.dcf packetDropNotAddressedToUs:count 45
attr interpolationmode none
attr source packetDropReasonIsNotAddressedToUs(packetDropped)
attr title "packet drops: not addressed to us, count"
scalar RoutingScenario.node[1].wlan[0].mac.dcf packetDropNotAddressedToUs:sum(packetBytes) 2130
attr interpolationmode none
attr source packetDropReasonIsNotAddressedToUs(packetDropped)
attr title "packet drops: not addressed to us, sum(packetBytes)"
scalar RoutingScenario.node[1].wlan[0].mac.dcf packetDropQueueOverflow:count 0
attr interpolationmode none
attr source packetDropReasonIsQueueOverflow(packetDropped)
attr title "packet drops: queue overflow, count"
scalar RoutingScenario.node[1].wlan[0].mac.dcf packetDropQueueOverflow:sum(packetBytes) 0
attr interpolationmode none
attr source packetDropReasonIsQueueOverflow(packetDropped)
attr title "packet drops: queue overflow, sum(packetBytes)"
scalar RoutingScenario.node[1].wlan[0].mac.dcf packetDropRetryLimitReached:count 0
attr interpolationmode none
attr source packetDropReasonIsRetryLimitReached(packetDropped)
attr title "packet drops: retry limit reached, count"
scalar RoutingScenario.node[1].wlan[0].mac.dcf packetDropRetryLimitReached:sum(packetBytes) 0
attr interpolationmode none
attr source packetDropReasonIsRetryLimitReached(packetDropped)
attr title "packet drops: retry limit reached, sum(packetBytes)"
scalar RoutingScenario.node[1].wlan[0].mac.dcf linkBroken:count 0
attr interpolationmode none
attr title "link breaks, count"
scalar RoutingScenario.node[1].wlan[0].mac packetReceivedFromLower:count 108
attr interpolationmode none
attr title "packets received from lower layer, count"
scalar RoutingScenario.node[1].wlan[0].mac packetReceivedFromLower:sum(packetBytes) 6972
attr interpolationmode none
attr title "packets received from lower layer, sum(packetBytes)"
scalar RoutingScenario.node[1].wlan[0].mac packetSentToLower:count 15
attr interpolationmode none
attr title "packets sent to lower layer, count"
scalar RoutingScenario.node[1].wlan[0].mac packetSentToLower:sum(packetBytes) 978
attr interpolationmode none
attr title "packets sent to lower layer, sum(packetBytes)"
scalar RoutingScenario.node[1].wlan[0].mac packetReceivedFromUpper:count 11
attr interpolationmode none
attr title "packets received from upper layer, count"
scalar RoutingScenario.node[1].wlan[0].mac packetReceivedFromUpper:sum(packetBytes) 570
attr interpolationmode none
attr title "packets received from upper layer, sum(packetBytes)"
scalar RoutingScenario.node[1].wlan[0].mac packetSentToUpper:count 59
attr interpolationmode none
attr title "packets sent to upper layer, count"
scalar RoutingScenario.node[1].wlan[0].mac packetSentToUpper:sum(packetBytes) 2982
attr interpolationmode none
attr title "packets sent to upper layer, sum(packetBytes)"
scalar RoutingScenario.node[1].wlan[0].mac packetDrop:count 48
attr interpolationmode none
attr source packetDropped
attr title "packet drops, count"
scalar RoutingScenario.node[1].wlan[0].mac packetDrop:sum(packetBytes) 2324
attr interpolationmode none
attr source packetDropped
attr title "packet drops, sum(packetBytes)"
scalar RoutingScenario.node[1].wlan[0].mac packetDropIncorrectlyReceived:count 3
attr interpolationmode none
attr source packetDropReasonIsIncorrectlyReceived(packetDropped)
attr title "packet drops: incorrectly received, count"
scalar RoutingScenario.node[1].wlan[0].mac packetDropIncorrectlyReceived:sum(packetBytes) 194
attr interpolationmode none
attr source packetDropReasonIsIncorrectlyReceived(packetDropped)
attr title "packet drops: incorrectly received, sum(packetBytes)"
scalar RoutingScenario.node[1].wlan[0].mac packetDropNotAddressedToUs:count 45
attr interpolationmode none
attr source packetDropReasonIsNotAddressedToUs(packetDropped)
attr title "packet drops: not addressed to us, count"
scalar RoutingScenario.node[1].wlan[0].mac packetDropNotAddressedToUs:sum(packetBytes) 2130
attr interpolationmode none
attr source packetDropReasonIsNotAddressedToUs(packetDropped)
attr title "packet drops: not addressed to us, sum(packetBytes)"
scalar RoutingScenario.node[1].wlan[0].mac packetDropQueueOverflow:count 0
attr interpolationmode none
attr source packetDropReasonIsQueueOverflow(packetDropped)
attr title "packet drops: queue overflow, count"
scalar RoutingScenario.node[1].wlan[0].mac packetDropQueueOverflow:sum(packetBytes) 0
attr interpolationmode none
attr source packetDropReasonIsQueueOverflow(packetDropped)
attr title "packet drops: queue overflow, sum(packetBytes)"
scalar RoutingScenario.node[1].wlan[0].mac packetDropRetryLimitReached:count 0
attr interpolationmode none
attr source packetDropReasonIsRetryLimitReached(packetDropped)
attr title "packet drops: retry limit reached, count"
scalar RoutingScenario.node[1].wlan[0].mac packetDropRetryLimitReached:sum(packetBytes) 0
attr interpolationmode none
attr source packetDropReasonIsRetryLimitReached(packetDropped)
attr title "packet drops: retry limit reached, sum(packetBytes)"
scalar RoutingScenario.node[1].wlan[0].mac packetDropDuplicateDetected:count 0
attr interpolationmode none
attr source packetDropReasonIsDuplicateDetected(packetDropped)
attr title "packet drops: duplicate detected, count"
scalar RoutingScenario.node[1].wlan[0].mac packetDropDuplicateDetected:sum(packetBytes) 0
attr interpolationmode none
attr source packetDropReasonIsDuplicateDetected(packetDropped)
attr title "packet drops: duplicate detected, sum(packetBytes)"
scalar RoutingScenario.node[1].wlan[0].mac packetDropOther:count 0
attr interpolationmode none
attr source packetDropReasonIsOther(packetDropped)
attr title "packet drops: other, count"
scalar RoutingScenario.node[1].wlan[0].mac packetDropOther:sum(packetBytes) 0
attr interpolationmode none
attr source packetDropReasonIsOther(packetDropped)
attr title "packet drops: other, sum(packetBytes)"
scalar RoutingScenario.node[1].wlan[0].mac linkBroken:count 0
attr interpolationmode none
attr title "link breaks, count"
statistic RoutingScenario.node[1].wlan[0].radio radioChannel:histogram
field count 1
field mean 3
field stddev -nan
field min 3
field max 3
field sum 3
field sqrsum 9
attr interpolationmode sample-hold
attr source radioChannelChanged
attr title "Radio channel, histogram"
bin	-inf	0
bin	2	0
bin	3	1
bin	4	0
scalar RoutingScenario.node[1].wlan[0].radio radioMode:count 33
attr interpolationmode sample-hold
attr source radioModeChanged
attr title "Radio mode, count"
scalar RoutingScenario.node[1].wlan[0].radio receptionState:count 247
attr interpolationmode sample-hold
attr source receptionStateChanged
attr title "Radio reception state, count"
scalar RoutingScenario.node[1].wlan[0].radio transmissionState:count 60
attr interpolationmode sample-hold
attr source transmissionStateChanged
attr title "Radio transmission state, count"
statistic RoutingScenario.node[1].wlan[0].radio minSnir:histogram
field count 108
field mean 1376.2070910672
field stddev 2096.3856885065
field min 5.1182422689193
field max 9008.8072574527
field sum 148630.36583526
field sqrsum 674793289.59268
attr source minimumSnir(packetSentToUpper)
attr title "Min SNIR, histogram"
bin	-inf	0
bin	0	13
bin	200	8
bin	400	42
bin	600	4
bin	800	10
bin	1000	0
bin	1200	4
bin	1400	11
bin	1600	2
bin	1800	0
bin	2000	1
bin	2200	0
bin	2400	0
bin	2600	0
bin	2800	0
bin	3000	0
bin	3200	0
bin	3400	0
bin	3600	0
bin	3800	0
bin	4000	0
bin	4200	0
bin	4400	6
bin	4600	0
bin	4800	0
bin	5000	0
bin	5200	0
bin	5400	0
bin	5600	0
bin	5800	0
bin	6000	0
bin	6200	0
bin	6400	0
bin	6600	0
bin	6800	0
bin	7000	0
bin	7200	0
bin	7400	0
bin	7600	0
bin	7800	2
bin	8000	2
bin	8200	0
bin	8400	0
bin	8600	2
bin	8800	0
bin	9000	1
bin	9200	0
bin	9400	0
bin	9600	0
bin	9800	0
bin	10000	0
bin	10200	0
bin	10400	0
bin	10600	0
bin	10800	0
bin	11000	0
bin	11200	0
bin	11400	0
statistic RoutingScenario.node[1].wlan[0].radio packetErrorRate:histogram
field count 108
field mean 0.029895355912981
field stddev 0.1661725994703
field min 0
field max 1
field sum 3.2286984386019
field sqrsum 3.0511497001323
attr source packetErrorRate(packetSentToUpper)
attr title "Packet error rate, histogram"
bin	-inf	0
bin	0	104
bin	0.02	0
bin	0.04	0
bin	0.06	0
bin	0.08	0
bin	0.1	0
bin	0.12	0
bin	0.14	0
bin	0.16	0
bin	0.18	0
bin	0.2	0
bin	0.22	1
bin	0.24	0
bin	0.26	0
bin	0.28	0
bin	0.3	0
bin	0.32	0
bin	0.34	0
bin	0.36	0
bin	0.38	0
bin	0.4	0
bin	0.42	0
bin	0.44	0
bin	0.46	0
bin	0.48	0
bin	0.5	0
bin	0.52	0
bin	0.54	0
bin	0.56	0
bin	0.58	0
bin	0.6	0
bin	0.62	0
bin	0.64	0
bin	0.66	0
bin	0.68	0
bin	0.7	0
bin	0.72	0
bin	0.74	0
bin	0.76	0
bin	0.78	0
bin	0.8	0
bin	0.82	0
bin	0.84	0
bin	0.86	0
bin	0.88	0
bin	0.9	0
bin	0.92	0
bin	0.94	0
bin	0.96	0
bin	0.98	0
bin	1	3
bin	1.02	0
bin	1.04	0
bin	1.06	0
bin	1.08	0
bin	1.1	0
bin	1.12	0
bin	1.14	0
bin	1.16	0
bin	1.18	0
bin	1.2	0
bin	1.22	0
bin	1.24	0
bin	1.26	0
statistic RoutingScenario.node[1].wlan[0].radio bitErrorRate:histogram
field count 0
field mean -nan
field stddev nan
field min nan
field max nan
field sum 0
field sqrsum 0
attr source bitErrorRate(packetSentToUpper)
attr title "Bit error rate, histogram"
bin	-inf	0
bin	0	0
bin	1	0
statistic RoutingScenario.node[1].wlan[0].radio symbolErrorRate:histogram
field count 0
field mean -nan
field stddev nan
field min nan
field max nan
field sum 0
field sqrsum 0
attr source symbolErrorRate(packetSentToUpper)
attr title "Symbol error rate, histogram"
bin	-inf	0
bin	0	0
bin	1	0
scalar RoutingScenario.node[1].ipv4.ip packetDropAddressResolutionFailed:count 0
attr interpolationmode none
attr source packetDropReasonIsAddressResolutionFailed(packetDropped)
attr title "packet drop: address resolution failed, count"
scalar RoutingScenario.node[1].ipv4.ip packetDropAddressResolutionFailed:sum(packetBytes) 0
attr interpolationmode none
attr source packetDropReasonIsAddressResolutionFailed(packetDropped)
attr title "packet drop: address resolution failed, sum(packetBytes)"
scalar RoutingScenario.node[1].ipv4.ip packetDropHopLimitReached:count 0
attr interpolationmode none
attr source packetDropReasonIsHopLimitReached(packetDropped)
attr title "packet drop: hop limit reached, count"
scalar RoutingScenario.node[1].ipv4.ip packetDropHopLimitReached:sum(packetBytes) 0
attr interpolationmode none
attr source packetDropReasonIsHopLimitReached(packetDropped)
attr title "packet drop: hop limit reached, sum(packetBytes)"
scalar RoutingScenario.node[1].ipv4.ip packetDropForwardingDisabled:count 0
attr interpolationmode none
attr source packetDropReasonIsForwardingDisabled(packetDropped)
attr title "packet drop: forwarding disabled, count"
scalar RoutingScenario.node[1].ipv4.ip packetDropForwardingDisabled:sum(packetBytes) 0
attr interpolationmode none
attr source packetDropReasonIsForwardingDisabled(packetDropped)
attr title "packet drop: forwarding disabled, sum(packetBytes)"
scalar RoutingScenario.node[1].ipv4.ip packetDropNoInterfaceFound:count 0
attr interpolationmode none
attr source packetDropReasonIsNoInterfaceFound(packetDropped)
attr title "packet drop: no interface found, count"
scalar RoutingScenario.node[1].ipv4.ip packetDropNoInterfaceFound:sum(packetBytes) 0
attr interpolationmode none
attr source packetDropReasonIsNoInterfaceFound(packetDropped)
attr title "packet drop: no interface found, sum(packetBytes)"
scalar RoutingScenario.node[1].ipv4.ip packetDropNoRouteFound:count 0
attr interpolationmode none
attr source packetDropReasonIsNoRouteFound(packetDropped)
attr title "packet drop: no route found, count"
scalar RoutingScenario.node[1].ipv4.ip packetDropNoRouteFound:sum(packetBytes) 0
attr interpolationmode none
attr source packetDropReasonIsNoRouteFound(packetDropped)
attr title "packet drop: no route found, sum(packetBytes)"
scalar RoutingScenario.node[1].ipv4.ip packetDropUndefined:count 0
attr interpolationmode none
attr source packetDropReasonIsUndefined(packetDropped)
attr title "packet drop: undefined, count"
scalar RoutingScenario.node[1].ipv4.ip packetDropUndefined:sum(packetBytes) 0
attr interpolationmode none
attr source packetDropReasonIsUndefined(packetDropped)
attr title "packet drop: undefined, sum(packetBytes)"
scalar RoutingScenario.node[1].ipv4.arp arpResolutionFailed:count 0
attr title "ARP failed resolutions, count"
scalar RoutingScenario.node[1].ipv4.arp arpResolutionCompleted:count 8
attr title "ARP completed resolutions, count"
scalar RoutingScenario.node[1].ipv4.arp arpResolutionInitiated:count 0
attr title "ARP initiated resolutions, count"
scalar RoutingScenario.node[1].ipv4.arp arpReplySent:count 1
attr source arpReplySent
attr title "ARP replies sent, count"
scalar RoutingScenario.node[1].ipv4.arp arpReplySent:sum(packetBytes) 28
attr source arpReplySent
attr title "ARP replies sent, sum(packetBytes)"
scalar RoutingScenario.node[1].ipv4.arp arpRequestSent:count 0
attr source arpRequestSent
attr title "ARP request sent, count"
scalar RoutingScenario.node[1].ipv4.arp arpRequestSent:sum(packetBytes) 0
attr source arpRequestSent
attr title "ARP request sent, sum(packetBytes)"
scalar RoutingScenario.node[1].udp packetReceived:count 51
attr interpolationmode none
attr source packetReceived
attr title "packets received, count"
scalar RoutingScenario.node[1].udp packetReceived:sum(packetBytes) 1620
attr interpolationmode none
attr source packetReceived
attr title "packets received, sum(packetBytes)"
scalar RoutingScenario.node[1].udp packetSent:count 968
attr interpolationmode none
attr source packetSent
attr title "packets sent, count"
scalar RoutingScenario.node[1].udp packetSent:sum(packetBytes) 965984
attr interpolationmode none
attr source packetSent
attr title "packets sent, sum(packetBytes)"
scalar RoutingScenario.node[1].udp passedUpPk:count 51
attr interpolationmode none
attr source packetSentToUpper
attr title "packets passed up, count"
scalar RoutingScenario.node[1].udp droppedPkWrongPort:count 0
attr interpolationmode none
attr source packetDropReasonIsNoPortFound(packetDropped)
attr title "packets dropped (wrong port), count"
scalar RoutingScenario.node[1].udp droppedPkBadChecksum:count 0
attr interpolationmode none
attr source packetDropReasonIsIncorrectlyReceived(packetDropped)
attr title "packets dropped (checksum error), count"
scalar RoutingScenario.node[1].app[0] "packets sent" 958
scalar RoutingScenario.node[1].app[0] "packets received" 0
scalar RoutingScenario.node[1].app[0] packetReceived:count 0
attr interpolationmode none
attr source packetReceived
attr title "packets received, count"
scalar RoutingScenario.node[1].app[0] packetReceived:sum(packetBytes) 0
attr interpolationmode none
attr source packetReceived
attr title "packets received, sum(packetBytes)"
statistic RoutingScenario.node[1].app[0] rcvdPkLifetime:stats
field count 0
field mean -nan
field stddev nan
field min nan
field max nan
field sum 0
field sqrsum 0
attr interpolationmode none
attr source dataAge(packetReceived)
attr title "received packet lifetime, stats"
attr unit s
scalar RoutingScenario.node[1].app[0] packetSent:count 958
attr interpolationmode none
attr source packetSent
attr title "packets sent, count"
scalar RoutingScenario.node[1].app[0] packetSent:sum(packetBytes) 958000
attr interpolationmode none
attr source packetSent
attr title "packets sent, sum(packetBytes)"
scalar RoutingScenario.node[2].lo[0].lo rcvdPkFromHl:count 0
attr interpolationmode none
attr source packetReceivedFromUpper
attr title "packets received from higher layer, count"
scalar RoutingScenario.node[2].lo[0].lo rcvdPkFromHl:sum(packetBytes) 0
attr interpolationmode none
attr source packetReceivedFromUpper
attr title "packets received from higher layer, sum(packetBytes)"
scalar RoutingScenario.node[2].lo[0].lo passedUpPk:count 0
attr interpolationmode none
attr source packetSentToUpper
attr title "packets passed to higher layer, count"
scalar RoutingScenario.node[2].lo[0].lo passedUpPk:sum(packetBytes) 0
attr interpolationmode none
attr source packetSentToUpper
attr title "packets passed to higher layer, sum(packetBytes)"
scalar RoutingScenario.node[2].wlan[0].mac.dcf.channelAccess.pendingQueue packetPopped:count 10
attr interpolationmode none
attr title "packet popped, count"
scalar RoutingScenario.node[2].wlan[0].mac.dcf.channelAccess.pendingQueue packetPopped:sum(packetBytes) 820
attr interpolationmode none
attr title "packet popped, sum(packetBytes)"
statistic RoutingScenario.node[2].wlan[0].mac.dcf.channelAccess.pendingQueue queueingTime:histogram
field count 10
field mean 0
field stddev 0
field min 0
field max 0
field sum 0
field sqrsum 0
attr interpolationmode none
attr source queueingTime(packetPopped)
attr title "queueing times, histogram"
attr unit s
bin	-inf	0
bin	-0.5	0
bin	-0.48	0
bin	-0.46	0
bin	-0.44	0
bin	-0.42	0
bin	-0.4	0
bin	-0.38	0
bin	-0.36	0
bin	-0.34	0
bin	-0.32	0
bin	-0.3	0
bin	-0.28	0
bin	-0.26	0
bin	-0.24	0
bin	-0.22	0
bin	-0.2	0
bin	-0.18	0
bin	-0.16	0
bin	-0.14	0
bin	-0.12	0
bin	-0.1	0
bin	-0.08	0
bin	-0.06	0
bin	-0.04	0
bin	-0.02	0
bin	0	10
bin	0.02	0
bin	0.04	0
bin	0.06	0
bin	0.08	0
bin	0.1	0
bin	0.12	0
bin	0.14	0
bin	0.16	0
bin	0.18	0
bin	0.2	0
bin	0.22	0
bin	0.24	0
bin	0.26	0
bin	0.28	0
bin	0.3	0
bin	0.32	0
bin	0.34	0
bin	0.36	0
bin	0.38	0
bin	0.4	0
bin	0.42	0
bin	0.44	0
bin	0.46	0
bin	0.48	0
bin	0.5	0
scalar RoutingScenario.node[2].wlan[0].mac.dcf.channelAccess.pendingQueue queueLength:max 1
attr interpolationmode sample-hold
attr source "count(packetPushed) - count(packetPopped) - count(packetRemoved) - count(packetDropped)"
attr title "queue length, max"
scalar RoutingScenario.node[2].wlan[0].mac.dcf.channelAccess.pendingQueue queueLength:timeavg 0
attr interpolationmode sample-hold
attr source "count(packetPushed) - count(packetPopped) - count(packetRemoved) - count(packetDropped)"
attr title "queue length, timeavg"
scalar RoutingScenario.node[2].wlan[0].mac.dcf.channelAccess.pendingQueue packetPushed:count 10
attr interpolationmode none
attr title "packet pushed, count"
scalar RoutingScenario.node[2].wlan[0].mac.dcf.channelAccess.pendingQueue packetPushed:sum(packetBytes) 820
attr interpolationmode none
attr title "packet pushed, sum(packetBytes)"
scalar RoutingScenario.node[2].wlan[0].mac.dcf.channelAccess.pendingQueue packetDropQueueOverflow:count 0
attr interpolationmode none
attr source packetDropReasonIsQueueOverflow(packetDropped)
attr title "packet drops: queue overflow, count"
scalar RoutingScenario.node[2].wlan[0].mac.dcf.channelAccess.pendingQueue packetDropQueueOverflow:sum(packetBytes) 0
attr interpolationmode none
attr source packetDropReasonIsQueueOverflow(packetDropped)
attr title "packet drops: queue overflow, sum(packetBytes)"
scalar RoutingScenario.node[2].wlan[0].mac.dcf.channelAccess.pendingQueue packetRemoved:count 0
attr interpolationmode none
attr title "packets removed, count"
scalar RoutingScenario.node[2].wlan[0].mac.dcf.channelAccess.pendingQueue packetRemoved:sum(packetBytes) 0
attr interpolationmode none
attr title "packets removed, sum(packetBytes)"
statistic RoutingScenario.node[2].wlan[0].mac.dcf.channelAccess.inProgressFrames queueingTime:histogram
field count 10
field mean 0.000104
field stddev 0
field min 0.000104
field max 0.000104
field sum 0.00104
field sqrsum 1.0816e-07
attr interpolationmode none
attr source queueingTime(packetDequeued)
attr title "queueing times, histogram"
bin	-inf	0
bin	0	10
bin	0.01	0
bin	0.02	0
bin	0.03	0
bin	0.04	0
bin	0.05	0
bin	0.06	0
bin	0.07	0
bin	0.08	0
bin	0.09	0
bin	0.1	0
bin	0.11	0
bin	0.12	0
bin	0.13	0
bin	0.14	0
bin	0.15	0
bin	0.16	0
bin	0.17	0
bin	0.18	0
bin	0.19	0
bin	0.2	0
bin	0.21	0
bin	0.22	0
bin	0.23	0
bin	0.24	0
bin	0.25	0
bin	0.26	0
bin	0.27	0
bin	0.28	0
bin	0.29	0
bin	0.3	0
bin	0.31	0
bin	0.32	0
bin	0.33	0
bin	0.34	0
bin	0.35	0
bin	0.36	0
bin	0.37	0
bin	0.38	0
bin	0.39	0
bin	0.4	0
bin	0.41	0
bin	0.42	0
bin	0.43	0
bin	0.44	0
bin	0.45	0
bin	0.46	0
bin	0.47	0
bin	0.48	0
bin	0.49	0
bin	0.5	0
bin	0.51	0
scalar RoutingScenario.node[2].wlan[0].mac.dcf.channelAccess.inProgressFrames queueLength:max 1
attr interpolationmode sample-hold
attr source "count(packetEnqueued) - count(packetDequeued)"
attr title "queue length, max"
scalar RoutingScenario.node[2].wlan[0].mac.dcf.channelAccess.inProgressFrames queueLength:timeavg 8.7458703881788e-05
attr interpolationmode sample-hold
attr source "count(packetEnqueued) - count(packetDequeued)"
attr title "queue length, timeavg"
scalar RoutingScenario.node[2].wlan[0].mac.dcf.channelAccess.contention channelAccessGranted:count 10
attr title "channel access granted, count"
scalar RoutingScenario.node[2].wlan[0].mac.dcf.channelAccess.contention stateChanged:count 144
attr interpolationmode none
attr title "contention state changed, count"
scalar RoutingScenario.node[2].wlan[0].mac.dcf.channelAccess channelOwnershipChanged:count 20
attr interpolationmode sample-hold
attr title "channel ownership, count"
scalar RoutingScenario.node[2].wlan[0].mac.dcf.originatorMacDataService packetAggregated:count 0
attr title "packets aggregated, count"
scalar RoutingScenario.node[2].wlan[0].mac.dcf.originatorMacDataService packetFragmented:count 0
attr title "packets fragmented, count"
scalar RoutingScenario.node[2].wlan[0].mac.dcf.recipientMacDataService packetDeaggregated:count 0
attr title "packets deaggregated, count"
scalar RoutingScenario.node[2].wlan[0].mac.dcf.recipientMacDataService packetDefragmented:count 9
attr title "packets defragmented, count"
scalar RoutingScenario.node[2].wlan[0].mac.dcf.recipientMacDataService packetDropDuplicateDetected:count 0
attr interpolationmode none
attr source packetDropReasonIsDuplicateDetected(packetDropped)
attr title "packet drops: duplicate detected, count"
scalar RoutingScenario.node[2].wlan[0].mac.dcf.recipientMacDataService packetDropDuplicateDetected:sum(packetBytes) 0
attr interpolationmode none
attr source packetDropReasonIsDuplicateDetected(packetDropped)
attr title "packet drops: duplicate detected, sum(packetBytes)"
scalar RoutingScenario.node[2].wlan[0].mac.dcf.recoveryProcedure retryLimitReached:count 0
attr title "retry limit reached, count"
scalar RoutingScenario.node[2].wlan[0].mac.dcf frameSequenceFinished:count 10
attr title "finished frame sequences, count"
statistic RoutingScenario.node[2].wlan[0].mac.dcf frameSequenceDuration:histogram
field count 10
field mean 0.000104
field stddev 0
field min 0.000104
field max 0.000104
field sum 0.00104
field sqrsum 1.0816e-07
attr source frameSequenceDuration(frameSequenceFinished)
attr title "frame sequence durations, histogram"
bin	-inf	0
bin	0	10
bin	0.01	0
bin	0.02	0
bin	0.03	0
bin	0.04	0
bin	0.05	0
bin	0.06	0
bin	0.07	0
bin	0.08	0
bin	0.09	0
bin	0.1	0
bin	0.11	0
bin	0.12	0
bin	0.13	0
bin	0.14	0
bin	0.15	0
bin	0.16	0
bin	0.17	0
bin	0.18	0
bin	0.19	0
bin	0.2	0
bin	0.21	0
bin	0.22	0
bin	0.23	0
bin	0.24	0
bin	0.25	0
bin	0.26	0
bin	0.27	0
bin	0.28	0
bin	0.29	0
bin	0.3	0
bin	0.31	0
bin	0.32	0
bin	0.33	0
bin	0.34	0
bin	0.35	0
bin	0.36	0
bin	0.37	0
bin	0.38	0
bin	0.39	0
bin	0.4	0
bin	0.41	0
bin	0.42	0
bin	0.43	0
bin	0.44	0
bin	0.45	0
bin	0.46	0
bin	0.47	0
bin	0.48	0
bin	0.49	0
bin	0.5	0
bin	0.51	0
statistic RoutingScenario.node[2].wlan[0].mac.dcf frameSequenceNumPackets:histogram
field count 10
field mean 1
field stddev 0
field min 1
field max 1
field sum 10
field sqrsum 10
attr source frameSequenceNumPackets(frameSequenceFinished)
attr title "frame sequences: number of packets, histogram"
bin	-inf	0
bin	0	0
bin	1	10
bin	2	0
scalar RoutingScenario.node[2].wlan[0].mac.dcf packetReceivedFromPeer:count 9
attr interpolationmode none
attr title "packets received, count"
scalar RoutingScenario.node[2].wlan[0].mac.dcf packetReceivedFromPeer:sum(packetBytes) 738
attr interpolationmode none
attr title "packets received, sum(packetBytes)"
scalar RoutingScenario.node[2].wlan[0].mac.dcf packetReceivedFromPeerUnicast:count 0
attr interpolationmode none
attr source ieee80211Unicast(packetReceivedFromPeer)
attr title "packets received: unicast, count"
scalar RoutingScenario.node[2].wlan[0].mac.dcf packetReceivedFromPeerUnicast:sum(packetBytes) 0
attr interpolationmode none
attr source ieee80211Unicast(packetReceivedFromPeer)
attr title "packets received: unicast, sum(packetBytes)"
scalar RoutingScenario.node[2].wlan[0].mac.dcf packetReceivedFromPeerMulticast:count 9
attr interpolationmode none
attr source ieee80211Multicast(packetReceivedFromPeer)
attr title "packets received: multicast, count"
scalar RoutingScenario.node[2].wlan[0].mac.dcf packetReceivedFromPeerMulticast:sum(packetBytes) 738
attr interpolationmode none
attr source ieee80211Multicast(packetReceivedFromPeer)
attr title "packets received: multicast, sum(packetBytes)"
scalar RoutingScenario.node[2].wlan[0].mac.dcf packetReceivedFromPeerBroadcast:count 9
attr interpolationmode none
attr source ieee80211Broadcast(packetReceivedFromPeer)
attr title "packets received: broadcast, count"
scalar RoutingScenario.node[2].wlan[0].mac.dcf packetReceivedFromPeerBroadcast:sum(packetBytes) 738
attr interpolationmode none
attr source ieee80211Broadcast(packetReceivedFromPeer)
attr title "packets received: broadcast, sum(packetBytes)"
scalar RoutingScenario.node[2].wlan[0].mac.dcf packetReceivedFromPeerWithRetry:count 0
attr interpolationmode none
attr source ieee80211Retry(packetReceivedFromPeer)
attr title "packets received: with retry, count"
scalar RoutingScenario.node[2].wlan[0].mac.dcf packetReceivedFromPeerWithRetry:sum(packetBytes) 0
attr interpolationmode none
attr source ieee80211Retry(packetReceivedFromPeer)
attr title "packets received: with retry, sum(packetBytes)"
scalar RoutingScenario.node[2].wlan[0].mac.dcf packetReceivedFromPeerWithoutRetry:count 9
attr interpolationmode none
attr source ieee80211NotRetry(packetReceivedFromPeer)
attr title "packets received: without retry, count"
scalar RoutingScenario.node[2].wlan[0].mac.dcf packetReceivedFromPeerWithoutRetry:sum(packetBytes) 738
attr interpolationmode none
attr source ieee80211NotRetry(packetReceivedFromPeer)
attr title "packets received: without retry, sum(packetBytes)"
scalar RoutingScenario.node[2].wlan[0].mac.dcf packetSentToPeer:count 10
attr interpolationmode none
attr title "packets sent, count"
scalar RoutingScenario.node[2].wlan[0].mac.dcf packetSentToPeer:sum(packetBytes) 820
attr interpolationmode none
attr title "packets sent, sum(packetBytes)"
scalar RoutingScenario.node[2].wlan[0].mac.dcf packetSentToPeerUnicast:count 0
attr interpolationmode none
attr source ieee80211Unicast(packetSentToPeer)
attr title "packets sent: unicast, count"
scalar RoutingScenario.node[2].wlan[0].mac.dcf packetSentToPeerUnicast:sum(packetBytes) 0
attr interpolationmode none
attr source ieee80211Unicast(packetSentToPeer)
attr title "packets sent: unicast, sum(packetBytes)"
scalar RoutingScenario.node[2].wlan[0].mac.dcf packetSentToPeerMulticast:count 10
attr interpolationmode none
attr source ieee80211Multicast(packetSentToPeer)
attr title "packets sent: multicast, count"
scalar RoutingScenario.node[2].wlan[0].mac.dcf packetSentToPeerMulticast:sum(packetBytes) 820
attr interpolationmode none
attr source ieee80211Multicast(packetSentToPeer)
attr title "packets sent: multicast, sum(packetBytes)"
scalar RoutingScenario.node[2].wlan[0].mac.dcf packetSentToPeerBroadcast:count 10
attr interpolationmode none
attr source ieee80211Broadcast(packetSentToPeer)
attr title "packets sent: broadcast , count"
scalar RoutingScenario.node[2].wlan[0].mac.dcf packetSentToPeerBroadcast:sum(packetBytes) 820
attr interpolationmode none
attr source ieee80211Broadcast(packetSentToPeer)
attr title "packets sent: broadcast , sum(packetBytes)"
scalar RoutingScenario.node[2].wlan[0].mac.dcf packetSentToPeerWithRetry:count 0
attr interpolationmode none
attr source ieee80211Retry(packetSentToPeer)
attr title "packets sent: with retry, count"
scalar RoutingScenario.node[2].wlan[0].mac.dcf packetSentToPeerWithRetry:sum(packetBytes) 0
attr interpolationmode none
attr source ieee80211Retry(packetSentToPeer)
attr title "packets sent: with retry, sum(packetBytes)"
scalar RoutingScenario.node[2].wlan[0].mac.dcf packetSentToPeerWithoutRetry:count 10
attr interpolationmode none
attr source ieee80211NotRetry(packetSentToPeer)
attr title "packets sent: without retry, count"
scalar RoutingScenario.node[2].wlan[0].mac.dcf packetSentToPeerWithoutRetry:sum(packetBytes) 820
attr interpolationmode none
attr source ieee80211NotRetry(packetSentToPeer)
attr title "packets sent: without retry, sum(packetBytes)"
scalar RoutingScenario.node[2].wlan[0].mac.dcf packetDrop:count 2
attr interpolationmode none
attr source packetDropped
attr title "packet drops, count"
scalar RoutingScenario.node[2].wlan[0].mac.dcf packetDrop:sum(packetBytes) 72
attr interpolationmode none
attr source packetDropped
attr title "packet drops, sum(packetBytes)"
scalar RoutingScenario.node[2].wlan[0].mac.dcf packetDropNotAddressedToUs:count 2
attr interpolationmode none
attr source packetDropReasonIsNotAddressedToUs(packetDropped)
attr title "packet drops: not addressed to us, count"
scalar RoutingScenario.node[2].wlan[0].mac.dcf packetDropNotAddressedToUs:sum(packetBytes) 72
attr interpolationmode none
attr source packetDropReasonIsNotAddressedToUs(packetDropped)
attr title "packet drops: not addressed to us, sum(packetBytes)"
scalar RoutingScenario.node[2].wlan[0].mac.dcf packetDropQueueOverflow:count 0
attr interpolationmode none
attr source packetDropReasonIsQueueOverflow(packetDropped)
attr title "packet drops: queue overflow, count"
scalar RoutingScenario.node[2].wlan[0].mac.dcf packetDropQueueOverflow:sum(packetBytes) 0
attr interpolationmode none
attr source packetDropReasonIsQueueOverflow(packetDropped)
attr title "packet drops: queue overflow, sum(packetBytes)"
scalar RoutingScenario.node[2].wlan[0].mac.dcf packetDropRetryLimitReached:count 0
attr interpolationmode none
attr source packetDropReasonIsRetryLimitReached(packetDropped)
attr title "packet drops: retry limit reached, count"
scalar RoutingScenario.node[2].wlan[0].mac.dcf packetDropRetryLimitReached:sum(packetBytes) 0
attr interpolationmode none
attr source packetDropReasonIsRetryLimitReached(packetDropped)
attr title "packet drops: retry limit reached, sum(packetBytes)"
scalar RoutingScenario.node[2].wlan[0].mac.dcf linkBroken:count 0
attr interpolationmode none
attr title "link breaks, count"
scalar RoutingScenario.node[2].wlan[0].mac packetReceivedFromLower:count 12
attr interpolationmode none
attr title "packets received from lower layer, count"
scalar RoutingScenario.node[2].wlan[0].mac packetReceivedFromLower:sum(packetBytes) 892
attr interpolationmode none
attr title "packets received from lower layer, sum(packetBytes)"
scalar RoutingScenario.node[2].wlan[0].mac packetSentToLower:count 10
attr interpolationmode none
attr title "packets sent to lower layer, count"
scalar RoutingScenario.node[2].wlan[0].mac packetSentToLower:sum(packetBytes) 820
attr interpolationmode none
attr title "packets sent to lower layer, sum(packetBytes)"
scalar RoutingScenario.node[2].wlan[0].mac packetReceivedFromUpper:count 10
attr interpolationmode none
[...]
attr title "packets received: multicast, count"
scalar RoutingScenario.node[24].wlan[0].mac.dcf packetReceivedFromPeerMulticast:sum(packetBytes) 2012
attr interpolationmode none
attr source ieee80211Multicast(packetReceivedFromPeer)
attr title "packets received: multicast, sum(packetBytes)"
scalar RoutingScenario.node[24].wlan[0].mac.dcf packetReceivedFromPeerBroadcast:count 26
attr interpolationmode none
attr source ieee80211Broadcast(packetReceivedFromPeer)
attr title "packets received: broadcast, count"
scalar RoutingScenario.node[24].wlan[0].mac.dcf packetReceivedFromPeerBroadcast:sum(packetBytes) 2012
attr interpolationmode none
attr source ieee80211Broadcast(packetReceivedFromPeer)
attr title "packets received: broadcast, sum(packetBytes)"
scalar RoutingScenario.node[24].wlan[0].mac.dcf packetReceivedFromPeerWithRetry:count 0
attr interpolationmode none
attr source ieee80211Retry(packetReceivedFromPeer)
attr title "packets received: with retry, count"
scalar RoutingScenario.node[24].wlan[0].mac.dcf packetReceivedFromPeerWithRetry:sum(packetBytes) 0
attr interpolationmode none
attr source ieee80211Retry(packetReceivedFromPeer)
attr title "packets received: with retry, sum(packetBytes)"
scalar RoutingScenario.node[24].wlan[0].mac.dcf packetReceivedFromPeerWithoutRetry:count 31
attr interpolationmode none
attr source ieee80211NotRetry(packetReceivedFromPeer)
attr title "packets received: without retry, count"
scalar RoutingScenario.node[24].wlan[0].mac.dcf packetReceivedFromPeerWithoutRetry:sum(packetBytes) 2274
attr interpolationmode none
attr source ieee80211NotRetry(packetReceivedFromPeer)
attr title "packets received: without retry, sum(packetBytes)"
scalar RoutingScenario.node[24].wlan[0].mac.dcf packetSentToPeer:count 11
attr interpolationmode none
attr title "packets sent, count"
scalar RoutingScenario.node[24].wlan[0].mac.dcf packetSentToPeer:sum(packetBytes) 650
attr interpolationmode none
attr title "packets sent, sum(packetBytes)"
scalar RoutingScenario.node[24].wlan[0].mac.dcf packetSentToPeerUnicast:count 5
attr interpolationmode none
attr source ieee80211Unicast(packetSentToPeer)
attr title "packets sent: unicast, count"
scalar RoutingScenario.node[24].wlan[0].mac.dcf packetSentToPeerUnicast:sum(packetBytes) 158
attr interpolationmode none
attr source ieee80211Unicast(packetSentToPeer)
attr title "packets sent: unicast, sum(packetBytes)"
scalar RoutingScenario.node[24].wlan[0].mac.dcf packetSentToPeerMulticast:count 6
attr interpolationmode none
attr source ieee80211Multicast(packetSentToPeer)
attr title "packets sent: multicast, count"
scalar RoutingScenario.node[24].wlan[0].mac.dcf packetSentToPeerMulticast:sum(packetBytes) 492
attr interpolationmode none
attr source ieee80211Multicast(packetSentToPeer)
attr title "packets sent: multicast, sum(packetBytes)"
scalar RoutingScenario.node[24].wlan[0].mac.dcf packetSentToPeerBroadcast:count 6
attr interpolationmode none
attr source ieee80211Broadcast(packetSentToPeer)
attr title "packets sent: broadcast , count"
scalar RoutingScenario.node[24].wlan[0].mac.dcf packetSentToPeerBroadcast:sum(packetBytes) 492
attr interpolationmode none
attr source ieee80211Broadcast(packetSentToPeer)
attr title "packets sent: broadcast , sum(packetBytes)"
scalar RoutingScenario.node[24].wlan[0].mac.dcf packetSentToPeerWithRetry:count 0
attr interpolationmode none
attr source ieee80211Retry(packetSentToPeer)
attr title "packets sent: with retry, count"
scalar RoutingScenario.node[24].wlan[0].mac.dcf packetSentToPeerWithRetry:sum(packetBytes) 0
attr interpolationmode none
attr source ieee80211Retry(packetSentToPeer)
attr title "packets sent: with retry, sum(packetBytes)"
scalar RoutingScenario.node[24].wlan[0].mac.dcf packetSentToPeerWithoutRetry:count 11
attr interpolationmode none
attr source ieee80211NotRetry(packetSentToPeer)
attr title "packets sent: without retry, count"
scalar RoutingScenario.node[24].wlan[0].mac.dcf packetSentToPeerWithoutRetry:sum(packetBytes) 650
attr interpolationmode none
attr source ieee80211NotRetry(packetSentToPeer)
attr title "packets sent: without retry, sum(packetBytes)"
scalar RoutingScenario.node[24].wlan[0].mac.dcf packetDrop:count 14
attr interpolationmode none
attr source packetDropped
attr title "packet drops, count"
scalar RoutingScenario.node[24].wlan[0].mac.dcf packetDrop:sum(packetBytes) 604
attr interpolationmode none
attr source packetDropped
attr title "packet drops, sum(packetBytes)"
scalar RoutingScenario.node[24].wlan[0].mac.dcf packetDropNotAddressedToUs:count 14
attr interpolationmode none
attr source packetDropReasonIsNotAddressedToUs(packetDropped)
attr title "packet drops: not addressed to us, count"
scalar RoutingScenario.node[24].wlan[0].mac.dcf packetDropNotAddressedToUs:sum(packetBytes) 604
attr interpolationmode none
attr source packetDropReasonIsNotAddressedToUs(packetDropped)
attr title "packet drops: not addressed to us, sum(packetBytes)"
scalar RoutingScenario.node[24].wlan[0].mac.dcf packetDropQueueOverflow:count 0
attr interpolationmode none
attr source packetDropReasonIsQueueOverflow(packetDropped)
attr title "packet drops: queue overflow, count"
scalar RoutingScenario.node[24].wlan[0].mac.dcf packetDropQueueOverflow:sum(packetBytes) 0
attr interpolationmode none
attr source packetDropReasonIsQueueOverflow(packetDropped)
attr title "packet drops: queue overflow, sum(packetBytes)"
scalar RoutingScenario.node[24].wlan[0].mac.dcf packetDropRetryLimitReached:count 0
attr interpolationmode none
attr source packetDropReasonIsRetryLimitReached(packetDropped)
attr title "packet drops: retry limit reached, count"
scalar RoutingScenario.node[24].wlan[0].mac.dcf packetDropRetryLimitReached:sum(packetBytes) 0
attr interpolationmode none
attr source packetDropReasonIsRetryLimitReached(packetDropped)
attr title "packet drops: retry limit reached, sum(packetBytes)"
scalar RoutingScenario.node[24].wlan[0].mac.dcf linkBroken:count 0
attr interpolationmode none
attr title "link breaks, count"
scalar RoutingScenario.node[24].wlan[0].mac packetReceivedFromLower:count 45
attr interpolationmode none
attr title "packets received from lower layer, count"
scalar RoutingScenario.node[24].wlan[0].mac packetReceivedFromLower:sum(packetBytes) 2878
attr interpolationmode none
attr title "packets received from lower layer, sum(packetBytes)"
scalar RoutingScenario.node[24].wlan[0].mac packetSentToLower:count 11
attr interpolationmode none
attr title "packets sent to lower layer, count"
scalar RoutingScenario.node[24].wlan[0].mac packetSentToLower:sum(packetBytes) 650
attr interpolationmode none
attr title "packets sent to lower layer, sum(packetBytes)"
scalar RoutingScenario.node[24].wlan[0].mac packetReceivedFromUpper:count 8
attr interpolationmode none
attr title "packets received from upper layer, count"
scalar RoutingScenario.node[24].wlan[0].mac packetReceivedFromUpper:sum(packetBytes) 384
attr interpolationmode none
attr title "packets received from upper layer, sum(packetBytes)"
scalar RoutingScenario.node[24].wlan[0].mac packetSentToUpper:count 29
attr interpolationmode none
attr title "packets sent to upper layer, count"
scalar RoutingScenario.node[24].wlan[0].mac packetSentToUpper:sum(packetBytes) 1434
attr interpolationmode none
attr title "packets sent to upper layer, sum(packetBytes)"
scalar RoutingScenario.node[24].wlan[0].mac packetDrop:count 14
attr interpolationmode none
attr source packetDropped
attr title "packet drops, count"
scalar RoutingScenario.node[24].wlan[0].mac packetDrop:sum(packetBytes) 604
attr interpolationmode none
attr source packetDropped
attr title "packet drops, sum(packetBytes)"
scalar RoutingScenario.node[24].wlan[0].mac packetDropIncorrectlyReceived:count 0
attr interpolationmode none
attr source packetDropReasonIsIncorrectlyReceived(packetDropped)
attr title "packet drops: incorrectly received, count"
scalar RoutingScenario.node[24].wlan[0].mac packetDropIncorrectlyReceived:sum(packetBytes) 0
attr interpolationmode none
attr source packetDropReasonIsIncorrectlyReceived(packetDropped)
attr title "packet drops: incorrectly received, sum(packetBytes)"
scalar RoutingScenario.node[24].wlan[0].mac packetDropNotAddressedToUs:count 14
attr interpolationmode none
attr source packetDropReasonIsNotAddressedToUs(packetDropped)
attr title "packet drops: not addressed to us, count"
scalar RoutingScenario.node[24].wlan[0].mac packetDropNotAddressedToUs:sum(packetBytes) 604
attr interpolationmode none
attr source packetDropReasonIsNotAddressedToUs(packetDropped)
attr title "packet drops: not addressed to us, sum(packetBytes)"
scalar RoutingScenario.node[24].wlan[0].mac packetDropQueueOverflow:count 0
attr interpolationmode none
attr source packetDropReasonIsQueueOverflow(packetDropped)
attr title "packet drops: queue overflow, count"
scalar RoutingScenario.node[24].wlan[0].mac packetDropQueueOverflow:sum(packetBytes) 0
attr interpolationmode none
attr source packetDropReasonIsQueueOverflow(packetDropped)
attr title "packet drops: queue overflow, sum(packetBytes)"
scalar RoutingScenario.node[24].wlan[0].mac packetDropRetryLimitReached:count 0
attr interpolationmode none
attr source packetDropReasonIsRetryLimitReached(packetDropped)
attr title "packet drops: retry limit reached, count"
scalar RoutingScenario.node[24].wlan[0].mac packetDropRetryLimitReached:sum(packetBytes) 0
attr interpolationmode none
attr source packetDropReasonIsRetryLimitReached(packetDropped)
attr title "packet drops: retry limit reached, sum(packetBytes)"
scalar RoutingScenario.node[24].wlan[0].mac packetDropDuplicateDetected:count 0
attr interpolationmode none
attr source packetDropReasonIsDuplicateDetected(packetDropped)
attr title "packet drops: duplicate detected, count"
scalar RoutingScenario.node[24].wlan[0].mac packetDropDuplicateDetected:sum(packetBytes) 0
attr interpolationmode none
attr source packetDropReasonIsDuplicateDetected(packetDropped)
attr title "packet drops: duplicate detected, sum(packetBytes)"
scalar RoutingScenario.node[24].wlan[0].mac packetDropOther:count 0
attr interpolationmode none
attr source packetDropReasonIsOther(packetDropped)
attr title "packet drops: other, count"
scalar RoutingScenario.node[24].wlan[0].mac packetDropOther:sum(packetBytes) 0
attr interpolationmode none
attr source packetDropReasonIsOther(packetDropped)
attr title "packet drops: other, sum(packetBytes)"
scalar RoutingScenario.node[24].wlan[0].mac linkBroken:count 0
attr interpolationmode none
attr title "link breaks, count"
statistic RoutingScenario.node[24].wlan[0].radio radioChannel:histogram
field count 1
field mean 3
field stddev -nan
field min 3
field max 3
field sum 3
field sqrsum 9
attr interpolationmode sample-hold
attr source radioChannelChanged
attr title "Radio channel, histogram"
bin	-inf	0
bin	2	0
bin	3	1
bin	4	0
scalar RoutingScenario.node[24].wlan[0].radio radioMode:count 25
attr interpolationmode sample-hold
attr source radioModeChanged
attr title "Radio mode, count"
scalar RoutingScenario.node[24].wlan[0].radio receptionState:count 117
attr interpolationmode sample-hold
attr source receptionStateChanged
attr title "Radio reception state, count"
scalar RoutingScenario.node[24].wlan[0].radio transmissionState:count 44
attr interpolationmode sample-hold
attr source transmissionStateChanged
attr title "Radio transmission state, count"
statistic RoutingScenario.node[24].wlan[0].radio minSnir:histogram
field count 45
field mean 91526.345015305
field stddev 305562.29902556
field min 222.33710054134
field max 1215580.7003698
field sum 4118685.5256887
field sqrsum 4485174250208.3
attr source minimumSnir(packetSentToUpper)
attr title "Min SNIR, histogram"
bin	-inf	0
bin	0	36
bin	20000	5
bin	40000	0
bin	60000	0
bin	80000	0
bin	100000	0
bin	120000	0
bin	140000	0
bin	160000	0
bin	180000	0
bin	200000	1
bin	220000	0
bin	240000	0
bin	260000	0
bin	280000	0
bin	300000	0
bin	320000	0
bin	340000	0
bin	360000	0
bin	380000	0
bin	400000	0
bin	420000	0
bin	440000	0
bin	460000	0
bin	480000	0
bin	500000	0
bin	520000	0
bin	540000	0
bin	560000	0
bin	580000	0
bin	600000	0
bin	620000	0
bin	640000	0
bin	660000	0
bin	680000	0
bin	700000	0
bin	720000	0
bin	740000	0
bin	760000	0
bin	780000	0
bin	800000	0
bin	820000	0
bin	840000	0
bin	860000	0
bin	880000	0
bin	900000	0
bin	920000	0
bin	940000	0
bin	960000	0
bin	980000	0
bin	1000000	0
bin	1020000	0
bin	1040000	0
bin	1060000	0
bin	1080000	0
bin	1100000	0
bin	1120000	0
bin	1140000	0
bin	1160000	0
bin	1180000	0
bin	1200000	3
bin	1220000	0
bin	1240000	0
bin	1260000	0
bin	1280000	0
bin	1300000	0
bin	1320000	0
bin	1340000	0
bin	1360000	0
bin	1380000	0
bin	1400000	0
bin	1420000	0
bin	1440000	0
bin	1460000	0
bin	1480000	0
bin	1500000	0
bin	1520000	0
statistic RoutingScenario.node[24].wlan[0].radio packetErrorRate:histogram
field count 45
field mean 0
field stddev 0
field min 0
field max 0
field sum 0
field sqrsum 0
attr source packetErrorRate(packetSentToUpper)
attr title "Packet error rate, histogram"
bin	-inf	0
bin	-0.5	0
bin	-0.48	0
bin	-0.46	0
bin	-0.44	0
bin	-0.42	0
bin	-0.4	0
bin	-0.38	0
bin	-0.36	0
bin	-0.34	0
bin	-0.32	0
bin	-0.3	0
bin	-0.28	0
bin	-0.26	0
bin	-0.24	0
bin	-0.22	0
bin	-0.2	0
bin	-0.18	0
bin	-0.16	0
bin	-0.14	0
bin	-0.12	0
bin	-0.1	0
bin	-0.08	0
bin	-0.06	0
bin	-0.04	0
bin	-0.02	0
bin	0	45
bin	0.02	0
bin	0.04	0
bin	0.06	0
bin	0.08	0
bin	0.1	0
bin	0.12	0
bin	0.14	0
bin	0.16	0
bin	0.18	0
bin	0.2	0
bin	0.22	0
bin	0.24	0
bin	0.26	0
bin	0.28	0
bin	0.3	0
bin	0.32	0
bin	0.34	0
bin	0.36	0
bin	0.38	0
bin	0.4	0
bin	0.42	0
bin	0.44	0
bin	0.46	0
bin	0.48	0
bin	0.5	0
statistic RoutingScenario.node[24].wlan[0].radio bitErrorRate:histogram
field count 0
field mean -nan
field stddev nan
field min nan
field max nan
field sum 0
field sqrsum 0
attr source bitErrorRate(packetSentToUpper)
attr title "Bit error rate, histogram"
bin	-inf	0
bin	0	0
bin	1	0
statistic RoutingScenario.node[24].wlan[0].radio symbolErrorRate:histogram
field count 0
field mean -nan
field stddev nan
field min nan
field max nan
field sum 0
field sqrsum 0
attr source symbolErrorRate(packetSentToUpper)
attr title "Symbol error rate, histogram"
bin	-inf	0
bin	0	0
bin	1	0
scalar RoutingScenario.node[24].ipv4.ip packetDropAddressResolutionFailed:count 0
attr interpolationmode none
attr source packetDropReasonIsAddressResolutionFailed(packetDropped)
attr title "packet drop: address resolution failed, count"
scalar RoutingScenario.node[24].ipv4.ip packetDropAddressResolutionFailed:sum(packetBytes) 0
attr interpolationmode none
attr source packetDropReasonIsAddressResolutionFailed(packetDropped)
attr title "packet drop: address resolution failed, sum(packetBytes)"
scalar RoutingScenario.node[24].ipv4.ip packetDropHopLimitReached:count 0
attr interpolationmode none
attr source packetDropReasonIsHopLimitReached(packetDropped)
attr title "packet drop: hop limit reached, count"
scalar RoutingScenario.node[24].ipv4.ip packetDropHopLimitReached:sum(packetBytes) 0
attr interpolationmode none
attr source packetDropReasonIsHopLimitReached(packetDropped)
attr title "packet drop: hop limit reached, sum(packetBytes)"
scalar RoutingScenario.node[24].ipv4.ip packetDropForwardingDisabled:count 0
attr interpolationmode none
attr source packetDropReasonIsForwardingDisabled(packetDropped)
attr title "packet drop: forwarding disabled, count"
scalar RoutingScenario.node[24].ipv4.ip packetDropForwardingDisabled:sum(packetBytes) 0
attr interpolationmode none
attr source packetDropReasonIsForwardingDisabled(packetDropped)
attr title "packet drop: forwarding disabled, sum(packetBytes)"
scalar RoutingScenario.node[24].ipv4.ip packetDropNoInterfaceFound:count 0
attr interpolationmode none
attr source packetDropReasonIsNoInterfaceFound(packetDropped)
attr title "packet drop: no interface found, count"
scalar RoutingScenario.node[24].ipv4.ip packetDropNoInterfaceFound:sum(packetBytes) 0
attr interpolationmode none
attr source packetDropReasonIsNoInterfaceFound(packetDropped)
attr title "packet drop: no interface found, sum(packetBytes)"
scalar RoutingScenario.node[24].ipv4.ip packetDropNoRouteFound:count 0
attr interpolationmode none
attr source packetDropReasonIsNoRouteFound(packetDropped)
attr title "packet drop: no route found, count"
scalar RoutingScenario.node[24].ipv4.ip packetDropNoRouteFound:sum(packetBytes) 0
attr interpolationmode none
attr source packetDropReasonIsNoRouteFound(packetDropped)
attr title "packet drop: no route found, sum(packetBytes)"
scalar RoutingScenario.node[24].ipv4.ip packetDropUndefined:count 0
attr interpolationmode none
attr source packetDropReasonIsUndefined(packetDropped)
attr title "packet drop: undefined, count"
scalar RoutingScenario.node[24].ipv4.ip packetDropUndefined:sum(packetBytes) 0
attr interpolationmode none
attr source packetDropReasonIsUndefined(packetDropped)
attr title "packet drop: undefined, sum(packetBytes)"
scalar RoutingScenario.node[24].ipv4.arp arpResolutionFailed:count 0
attr title "ARP failed resolutions, count"
scalar RoutingScenario.node[24].ipv4.arp arpResolutionCompleted:count 5
attr title "ARP completed resolutions, count"
scalar RoutingScenario.node[24].ipv4.arp arpResolutionInitiated:count 0
attr title "ARP initiated resolutions, count"
scalar RoutingScenario.node[24].ipv4.arp arpReplySent:count 2
attr source arpReplySent
attr title "ARP replies sent, count"
scalar RoutingScenario.node[24].ipv4.arp arpReplySent:sum(packetBytes) 56
attr source arpReplySent
attr title "ARP replies sent, sum(packetBytes)"
scalar RoutingScenario.node[24].ipv4.arp arpRequestSent:count 0
attr source arpRequestSent
attr title "ARP request sent, count"
scalar RoutingScenario.node[24].ipv4.arp arpRequestSent:sum(packetBytes) 0
attr source arpRequestSent
attr title "ARP request sent, sum(packetBytes)"
scalar RoutingScenario.node[24].udp packetReceived:count 24
attr interpolationmode none
attr source packetReceived
attr title "packets received, count"
scalar RoutingScenario.node[24].udp packetReceived:sum(packetBytes) 756
attr interpolationmode none
attr source packetReceived
attr title "packets received, sum(packetBytes)"
scalar RoutingScenario.node[24].udp packetSent:count 799
attr interpolationmode none
attr source packetSent
attr title "packets sent, count"
scalar RoutingScenario.node[24].udp packetSent:sum(packetBytes) 799536
attr interpolationmode none
attr source packetSent
attr title "packets sent, sum(packetBytes)"
scalar RoutingScenario.node[24].udp passedUpPk:count 24
attr interpolationmode none
attr source packetSentToUpper
attr title "packets passed up, count"
scalar RoutingScenario.node[24].udp droppedPkWrongPort:count 0
attr interpolationmode none
attr source packetDropReasonIsNoPortFound(packetDropped)
attr title "packets dropped (wrong port), count"
scalar RoutingScenario.node[24].udp droppedPkBadChecksum:count 0
attr interpolationmode none
attr source packetDropReasonIsIncorrectlyReceived(packetDropped)
attr title "packets dropped (checksum error), count"
scalar RoutingScenario.node[24].app[0] "packets sent" 793
scalar RoutingScenario.node[24].app[0] "packets received" 0
scalar RoutingScenario.node[24].app[0] packetReceived:count 0
attr interpolationmode none
attr source packetReceived
attr title "packets received, count"
scalar RoutingScenario.node[24].app[0] packetReceived:sum(packetBytes) 0
attr interpolationmode none
attr source packetReceived
attr title "packets received, sum(packetBytes)"
statistic RoutingScenario.node[24].app[0] rcvdPkLifetime:stats
field count 0
field mean -nan
field stddev nan
field min nan
field max nan
field sum 0
field sqrsum 0
attr interpolationmode none
attr source dataAge(packetReceived)
attr title "received packet lifetime, stats"
attr unit s
scalar RoutingScenario.node[24].app[0] packetSent:count 793
attr interpolationmode none
attr source packetSent
attr title "packets sent, count"
scalar RoutingScenario.node[24].app[0] packetSent:sum(packetBytes) 793000
attr interpolationmode none
attr source packetSent
attr title "packets sent, sum(packetBytes)"

