version 2
run canvas-0-20220713-15:31:37-2978
attr configname canvas
attr datetime 20220713-15:31:37
attr experiment canvas
attr inifile omnetpp.ini
attr iterationvars ""
attr iterationvarsf ""
attr measurement ""
attr network RoutingScenario
attr processid 2978
attr repetition 0
attr replication #0
attr resultdir results
attr runnumber 0
attr seedset 0
param *.visualizer.*.obstacleLossVisualizer.displayIntersections true
param *.visualizer.*.obstacleLossVisualizer.displayFaceNormalVectors true
param *.visualizer.*.obstacleLossVisualizer.intersectionLineColor "\"yellow\""
param *.visualizer.*.mediumVisualizer.signalPropagationAnimationSpeed 500/3e8
param *.visualizer.*.mediumVisualizer.signalTransmissionAnimationSpeed 50000/3e8
param *.visualizer.*.mediumVisualizer.displaySignals true
param *.visualizer.canvasVisualizer.mediumVisualizer.displaySignalDepartures false
param *.visualizer.canvasVisualizer.mediumVisualizer.displaySignalArrivals false
param *.visualizer.*.physicalLinkVisualizer.displayLinks true
param *.visualizer.*.mobilityVisualizer.displayPositions true
param *.visualizer.*.mobilityVisualizer.displayOrientations true
param *.visualizer.*.mobilityVisualizer.displayVelocities true
param *.visualizer.*.mobilityVisualizer.displayMovementTrails true
param *.visualizer.*.mobilityVisualizer.moduleFilter "\"**.antenna.mobility\""
param *.node[*].router "\"SecureAodv\""
param *.node[*].numApps 1
param *.node[*].app[0].typename "\"UdpBasicApp\""
param *.node[*].app[0].destAddresses "\"node[*]\""
param *.node[*].app[0].destPort 5000
param *.node[*].app[0].messageLength 1000B
param *.node[*].app[0].sendInterval exponential(12ms)
param *.node[*].app[0].packetName "\"UDPData\""
param *.node[*].wlan[0].opMode "\"p\""
param *.node[*].wlan[0].radio.bandName "\"5.9 GHz\""
param *.node[*].wlan[0].radio.channelNumber 3
param *.node[*].wlan[0].radio.transmitter.power 20mW
param *.node[*].wlan[0].radio.bandwidth "10 MHz"
param *.node[*].ipv4.configurator.typename "\"HostAutoConfigurator\""
param *.node[*].ipv4.configurator.interfaces "\"wlan0\""
param *.node[*].ipv4.configurator.mcastGroups "\"224.0.0.1\""
param *.node[*].mobility.typename "\"VeinsInetMobility\""
param *.node[*].mobility.speed 20mps
param *.manager.updateInterval 0.1s
param *.manager.host "\"localhost\""
param *.manager.port 9999
param *.manager.autoShutdown true
param *.manager.launchConfig "xmldoc(\"bari.launchd.xml\")"
param *.manager.moduleType "\"vanetnetsec.veins_inet.VeinsInetRoutingCar\""
param *.physicalEnvironment.config "xmldoc(\"obstacles.xml\")"
param *.radioMedium.obstacleLoss.typename "\"IdealObstacleLoss\""

vector 0 RoutingScenario.node[0].wlan[0].radio radioMode:vector ETV
attr interpolationmode sample-hold
attr source radioModeChanged
attr title "Radio mode, vector"
vector 1 RoutingScenario.node[0].wlan[0].radio radioChannel:vector ETV
attr interpolationmode sample-hold
attr source radioChannelChanged
attr title "Radio channel, vector"
vector 2 RoutingScenario.node[0].wlan[0].radio receptionState:vector ETV
attr interpolationmode sample-hold
attr source receptionStateChanged
attr title "Radio reception state, vector"
vector 3 RoutingScenario.node[0].wlan[0].mac.dcf.recoveryProcedure contentionWindowChanged:vector ETV
attr interpolationmode sample-hold
attr title "contention window, vector"
vector 4 RoutingScenario.node[0].app[0] packetSent:vector(packetBytes) ETV
attr interpolationmode none
attr source packetSent
attr title "packets sent, vector(packetBytes)"
vector 5 RoutingScenario.node[0].udp packetSent:vector(packetBytes) ETV
attr interpolationmode none
attr source packetSent
attr title "packets sent, vector(packetBytes)"
vector 6 RoutingScenario.node[0].lo[0].lo rcvdPkFromHl:vector(packetBytes) ETV
attr interpolationmode none
attr source packetReceivedFromUpper
attr title "packets received from higher layer, vector(packetBytes)"
vector 7 RoutingScenario.node[0].lo[0].lo passedUpPk:vector(packetBytes) ETV
attr interpolationmode none
attr source packetSentToUpper
attr title "packets passed to higher layer, vector(packetBytes)"
vector 8 RoutingScenario.node[0].udp packetReceived:vector(packetBytes) ETV
attr interpolationmode none
attr source packetReceived
attr title "packets received, vector(packetBytes)"
vector 9 RoutingScenario.node[0].udp droppedPkWrongPort:vector(count) ETV
attr interpolationmode none
attr source packetDropReasonIsNoPortFound(packetDropped)
attr title "packets dropped (wrong port), vector(count)"
vector 10 RoutingScenario.node[1].wlan[0].radio radioMode:vector ETV
attr interpolationmode sample-hold
attr source radioModeChanged
attr title "Radio mode, vector"
vector 11 RoutingScenario.node[1].wlan[0].radio radioChannel:vector ETV
attr interpolationmode sample-hold
attr source radioChannelChanged
attr title "Radio channel, vector"
vector 12 RoutingScenario.node[1].wlan[0].radio receptionState:vector ETV
attr interpolationmode sample-hold
attr source receptionStateChanged
attr title "Radio reception state, vector"
vector 13 RoutingScenario.node[1].wlan[0].mac.dcf.recoveryProcedure contentionWindowChanged:vector ETV
attr interpolationmode sample-hold
attr title "contention window, vector"
vector 14 RoutingScenario.node[2].wlan[0].radio radioMode:vector ETV
attr interpolationmode sample-hold
attr source radioModeChanged
attr title "Radio mode, vector"
vector 15 RoutingScenario.node[2].wlan[0].radio radioChannel:vector ETV
attr interpolationmode sample-hold
attr source radioChannelChanged
attr title "Radio channel, vector"
vector 16 RoutingScenario.node[2].wlan[0].radio receptionState:vector ETV
attr interpolationmode sample-hold
attr source receptionStateChanged
attr title "Radio reception state, vector"
vector 17 RoutingScenario.node[2].wlan[0].mac.dcf.recoveryProcedure contentionWindowChanged:vector ETV
attr interpolationmode sample-hold
attr title "contention window, vector"
vector 18 RoutingScenario.node[3].wlan[0].radio radioMode:vector ETV
attr interpolationmode sample-hold
attr source radioModeChanged
attr title "Radio mode, vector"
vector 19 RoutingScenario.node[3].wlan[0].radio radioChannel:vector ETV
attr interpolationmode sample-hold
attr source radioChannelChanged
attr title "Radio channel, vector"
vector 20 RoutingScenario.node[3].wlan[0].radio receptionState:vector ETV
attr interpolationmode sample-hold
attr source receptionStateChanged
attr title "Radio reception state, vector"
vector 21 RoutingScenario.node[3].wlan[0].mac.dcf.recoveryProcedure contentionWindowChanged:vector ETV
attr interpolationmode sample-hold
attr title "contention window, vector"
vector 22 RoutingScenario.node[4].wlan[0].radio radioMode:vector ETV
attr interpolationmode sample-hold
attr source radioModeChanged
attr title "Radio mode, vector"
vector 23 RoutingScenario.node[4].wlan[0].radio radioChannel:vector ETV
attr interpolationmode sample-hold
attr source radioChannelChanged
attr title "Radio channel, vector"
vector 24 RoutingScenario.node[4].wlan[0].radio receptionState:vector ETV
attr interpolationmode sample-hold
attr source receptionStateChanged
attr title "Radio reception state, vector"
vector 25 RoutingScenario.node[4].wlan[0].mac.dcf.recoveryProcedure contentionWindowChanged:vector ETV
attr interpolationmode sample-hold
attr title "contention window, vector"
vector 26 RoutingScenario.node[5].wlan[0].radio radioMode:vector ETV
attr interpolationmode sample-hold
attr source radioModeChanged
attr title "Radio mode, vector"
vector 27 RoutingScenario.node[5].wlan[0].radio radioChannel:vector ETV
attr interpolationmode sample-hold
attr source radioChannelChanged
attr title "Radio channel, vector"
vector 28 RoutingScenario.node[5].wlan[0].radio receptionState:vector ETV
attr interpolationmode sample-hold
attr source receptionStateChanged
attr title "Radio reception state, vector"
vector 29 RoutingScenario.node[5].wlan[0].mac.dcf.recoveryProcedure contentionWindowChanged:vector ETV
attr interpolationmode sample-hold
attr title "contention window, vector"
vector 30 RoutingScenario.node[6].wlan[0].radio radioMode:vector ETV
attr interpolationmode sample-hold
attr source radioModeChanged
attr title "Radio mode, vector"
vector 31 RoutingScenario.node[6].wlan[0].radio radioChannel:vector ETV
attr interpolationmode sample-hold
attr source radioChannelChanged
attr title "Radio channel, vector"
vector 32 RoutingScenario.node[6].wlan[0].radio receptionState:vector ETV
attr interpolationmode sample-hold
attr source receptionStateChanged
attr title "Radio reception state, vector"
vector 33 RoutingScenario.node[6].wlan[0].mac.dcf.recoveryProcedure contentionWindowChanged:vector ETV
attr interpolationmode sample-hold
attr title "contention window, vector"
vector 34 RoutingScenario.node[7].wlan[0].radio radioMode:vector ETV
attr interpolationmode sample-hold
attr source radioModeChanged
attr title "Radio mode, vector"
vector 35 RoutingScenario.node[7].wlan[0].radio radioChannel:vector ETV
attr interpolationmode sample-hold
attr source radioChannelChanged
attr title "Radio channel, vector"
vector 36 RoutingScenario.node[7].wlan[0].radio receptionState:vector ETV
attr interpolationmode sample-hold
attr source receptionStateChanged
attr title "Radio reception state, vector"
vector 37 RoutingScenario.node[7].wlan[0].mac.dcf.recoveryProcedure contentionWindowChanged:vector ETV
attr interpolationmode sample-hold
attr title "contention window, vector"
vector 38 RoutingScenario.node[8].wlan[0].radio radioMode:vector ETV
attr interpolationmode sample-hold
attr source radioModeChanged
attr title "Radio mode, vector"
vector 39 RoutingScenario.node[8].wlan[0].radio radioChannel:vector ETV
attr interpolationmode sample-hold
attr source radioChannelChanged
attr title "Radio channel, vector"
vector 40 RoutingScenario.node[8].wlan[0].radio receptionState:vector ETV
attr interpolationmode sample-hold
attr source receptionStateChanged
attr title "Radio reception state, vector"
vector 41 RoutingScenario.node[8].wlan[0].mac.dcf.recoveryProcedure contentionWindowChanged:vector ETV
attr interpolationmode sample-hold
attr title "contention window, vector"
vector 42 RoutingScenario.node[9].wlan[0].radio radioMode:vector ETV
attr interpolationmode sample-hold
attr source radioModeChanged
attr title "Radio mode, vector"
vector 43 RoutingScenario.node[9].wlan[0].radio radioChannel:vector ETV
attr interpolationmode sample-hold
attr source radioChannelChanged
attr title "Radio channel, vector"
vector 44 RoutingScenario.node[9].wlan[0].radio receptionState:vector ETV
attr interpolationmode sample-hold
attr source receptionStateChanged
attr title "Radio reception state, vector"
vector 45 RoutingScenario.node[9].wlan[0].mac.dcf.recoveryProcedure contentionWindowChanged:vector ETV
attr interpolationmode sample-hold
attr title "contention window, vector"
vector 46 RoutingScenario.node[10].wlan[0].radio radioMode:vector ETV
attr interpolationmode sample-hold
attr source radioModeChanged
attr title "Radio mode, vector"
vector 47 RoutingScenario.node[10].wlan[0].radio radioChannel:vector ETV
attr interpolationmode sample-hold
attr source radioChannelChanged
attr title "Radio channel, vector"
vector 48 RoutingScenario.node[10].wlan[0].radio receptionState:vector ETV
attr interpolationmode sample-hold
attr source receptionStateChanged
attr title "Radio reception state, vector"
vector 49 RoutingScenario.node[10].wlan[0].mac.dcf.recoveryProcedure contentionWindowChanged:vector ETV
attr interpolationmode sample-hold
attr title "contention window, vector"
0	2	0.1	0
0	2	0.1	0
0	2	0.1	2
1	2	0.1	3
2	2	0.1	1
3	2	0.1	15
4	5	0.1	1000
4	12	0.115071169097	1000
4	18	0.126149846675	1000
4	24	0.135596260355	1000
4	30	0.142208842195	1000
4	36	0.154666753803	1000
4	42	0.161572984166	1000
4	48	0.18825527723	1000
5	7	0.1	1008
5	13	0.115071169097	1008
5	19	0.126149846675	1008
5	25	0.135596260355	1008
5	31	0.142208842195	1008
5	37	0.154666753803	1008
5	43	0.161572984166	1008
5	49	0.18825527723	1008
6	9	0.1	1028
6	15	0.115071169097	1028
6	21	0.126149846675	1028
6	27	0.135596260355	1028
6	33	0.142208842195	1028
6	39	0.154666753803	1028
6	45	0.161572984166	1028
6	51	0.18825527723	1028
7	9	0.1	1028
7	15	0.115071169097	1028
7	21	0.126149846675	1028
7	27	0.135596260355	1028
7	33	0.142208842195	1028
7	39	0.154666753803	1028
7	45	0.161572984166	1028
7	51	0.18825527723	1028
8	11	0.1	1008
8	17	0.115071169097	1008
8	23	0.126149846675	1008
8	29	0.135596260355	1008
8	35	0.142208842195	1008
8	41	0.154666753803	1008
8	47	0.161572984166	1008
8	53	0.18825527723	1008
9	11	0.1	1
9	17	0.115071169097	2
9	23	0.126149846675	3
9	29	0.135596260355	4
9	35	0.142208842195	5
9	41	0.154666753803	6
9	47	0.161572984166	7
9	53	0.18825527723	8
10	54	0.2	0
10	54	0.2	0
10	54	0.2	2
11	54	0.2	3
12	54	0.2	1
13	54	0.2	15
14	54	0.2	0
14	54	0.2	0
14	54	0.2	2
15	54	0.2	3
16	54	0.2	1
17	54	0.2	15
18	54	0.2	0
18	54	0.2	0
18	54	0.2	2
19	54	0.2	3
20	54	0.2	1
21	54	0.2	15
22	54	0.2	0
22	54	0.2	0
22	54	0.2	2
23	54	0.2	3
24	54	0.2	1
25	54	0.2	15
26	54	0.2	0
26	54	0.2	0
26	54	0.2	2
27	54	0.2	3
28	54	0.2	1
29	54	0.2	15
30	54	0.2	0
30	54	0.2	0
30	54	0.2	2
31	54	0.2	3
32	54	0.2	1
33	54	0.2	15
34	54	0.2	0
34	54	0.2	0
34	54	0.2	2
35	54	0.2	3
36	54	0.2	1
37	54	0.2	15
38	54	0.2	0
38	54	0.2	0
38	54	0.2	2
39	54	0.2	3
40	54	0.2	1
41	54	0.2	15
42	54	0.2	0
42	54	0.2	0
42	54	0.2	2
43	54	0.2	3
44	54	0.2	1
45	54	0.2	15
46	54	0.2	0
46	54	0.2	0
46	54	0.2	2
47	54	0.2	3
48	54	0.2	1
49	54	0.2	15
vector 50 RoutingScenario.node[1].app[0] packetSent:vector(packetBytes) ETV
attr interpolationmode none
attr source packetSent
attr title "packets sent, vector(packetBytes)"
vector 51 RoutingScenario.node[2].app[0] packetSent:vector(packetBytes) ETV
attr interpolationmode none
attr source packetSent
attr title "packets sent, vector(packetBytes)"
vector 52 RoutingScenario.node[3].app[0] packetSent:vector(packetBytes) ETV
attr interpolationmode none
attr source packetSent
attr title "packets sent, vector(packetBytes)"
vector 53 RoutingScenario.node[4].app[0] packetSent:vector(packetBytes) ETV
attr interpolationmode none
attr source packetSent
attr title "packets sent, vector(packetBytes)"
vector 54 RoutingScenario.node[5].app[0] packetSent:vector(packetBytes) ETV
attr interpolationmode none
attr source packetSent
attr title "packets sent, vector(packetBytes)"
vector 55 RoutingScenario.node[6].app[0] packetSent:vector(packetBytes) ETV
attr interpolationmode none
attr source packetSent
attr title "packets sent, vector(packetBytes)"
vector 56 RoutingScenario.node[7].app[0] packetSent:vector(packetBytes) ETV
attr interpolationmode none
attr source packetSent
attr title "packets sent, vector(packetBytes)"
vector 57 RoutingScenario.node[8].app[0] packetSent:vector(packetBytes) ETV
attr interpolationmode none
attr source packetSent
attr title "packets sent, vector(packetBytes)"
vector 58 RoutingScenario.node[9].app[0] packetSent:vector(packetBytes) ETV
attr interpolationmode none
attr source packetSent
attr title "packets sent, vector(packetBytes)"
vector 59 RoutingScenario.node[10].app[0] packetSent:vector(packetBytes) ETV
attr interpolationmode none
attr source packetSent
attr title "packets sent, vector(packetBytes)"
vector 60 RoutingScenario.node[1].udp packetSent:vector(packetBytes) ETV
attr interpolationmode none
attr source packetSent
attr title "packets sent, vector(packetBytes)"
vector 61 RoutingScenario.node[2].udp packetSent:vector(packetBytes) ETV
attr interpolationmode none
attr source packetSent
attr title "packets sent, vector(packetBytes)"
vector 62 RoutingScenario.node[3].udp packetSent:vector(packetBytes) ETV
attr interpolationmode none
attr source packetSent
attr title "packets sent, vector(packetBytes)"
vector 63 RoutingScenario.node[4].udp packetSent:vector(packetBytes) ETV
attr interpolationmode none
attr source packetSent
attr title "packets sent, vector(packetBytes)"
vector 64 RoutingScenario.node[5].udp packetSent:vector(packetBytes) ETV
attr interpolationmode none
attr source packetSent
attr title "packets sent, vector(packetBytes)"
vector 65 RoutingScenario.node[6].udp packetSent:vector(packetBytes) ETV
attr interpolationmode none
attr source packetSent
attr title "packets sent, vector(packetBytes)"
vector 66 RoutingScenario.node[7].udp packetSent:vector(packetBytes) ETV
attr interpolationmode none
attr source packetSent
attr title "packets sent, vector(packetBytes)"
vector 67 RoutingScenario.node[8].udp packetSent:vector(packetBytes) ETV
attr interpolationmode none
attr source packetSent
attr title "packets sent, vector(packetBytes)"
vector 68 RoutingScenario.node[9].udp packetSent:vector(packetBytes) ETV
attr interpolationmode none
attr source packetSent
attr title "packets sent, vector(packetBytes)"
vector 69 RoutingScenario.node[10].udp packetSent:vector(packetBytes) ETV
attr interpolationmode none
attr source packetSent
attr title "packets sent, vector(packetBytes)"
vector 70 RoutingScenario.node[2].wlan[0].mac packetReceivedFromUpper:vector(packetBytes) ETV
attr interpolationmode none
attr title "packets received from upper layer, vector(packetBytes)"
vector 71 RoutingScenario.node[2].wlan[0].mac.dcf.channelAccess.pendingQueue packetPushed:vector(packetBytes) ETV
attr interpolationmode none
attr title "packet pushed, vector(packetBytes)"
vector 72 RoutingScenario.node[2].wlan[0].mac.dcf.channelAccess.pendingQueue queueLength:vector ETV
attr interpolationmode sample-hold
attr source "count(packetPushed) - count(packetPopped) - count(packetRemoved) - count(packetDropped)"
attr title "queue length, vector"
vector 73 RoutingScenario.node[2].wlan[0].mac.dcf.channelAccess.contention backoffPeriodGenerated:vector ETV
attr interpolationmode none
attr title "backoff periods, vector"
vector 74 RoutingScenario.node[2].wlan[0].mac.dcf.channelAccess.contention backoffActive:vector ETV
attr interpolationmode sample-hold
attr source count(backoffStarted)-count(backoffStopped)
attr title "backoff active, vector"
vector 75 RoutingScenario.node[2].wlan[0].mac.dcf.channelAccess.pendingQueue packetPopped:vector(packetBytes) ETV
attr interpolationmode none
attr title "packet popped, vector(packetBytes)"
vector 76 RoutingScenario.node[2].wlan[0].mac.dcf.channelAccess.pendingQueue queueingTime:vector ETV
attr interpolationmode none
attr source queueingTime(packetPopped)
attr title "queueing times, vector"
attr unit s
vector 77 RoutingScenario.node[2].wlan[0].mac.dcf.channelAccess.inProgressFrames queueLength:vector ETV
attr interpolationmode sample-hold
attr source "count(packetEnqueued) - count(packetDequeued)"
attr title "queue length, vector"
vector 78 RoutingScenario.node[2].wlan[0].mac.dcf datarateSelected:vector ETV
attr interpolationmode none
attr title "datarates selected, vector"
vector 79 RoutingScenario.node[2].wlan[0].mac packetSentToLower:vector(packetBytes) ETV
attr interpolationmode none
attr title "packets sent to lower layer, vector(packetBytes)"
vector 80 RoutingScenario.node[2].wlan[0].mac.dcf frameSequenceActive:vector ETV
attr interpolationmode sample-hold
attr source count(frameSequenceStarted)-count(frameSequenceFinished)
attr title "frame sequence active, vector"
vector 81 RoutingScenario.node[2].wlan[0].radio transmissionState:vector ETV
attr interpolationmode sample-hold
attr source transmissionStateChanged
attr title "Radio transmission state, vector"
vector 82 RoutingScenario.node[2].wlan[0].mac.dcf packetSentToPeer:vector(packetBytes) ETV
attr interpolationmode none
attr title "packets sent, vector(packetBytes)"
vector 83 RoutingScenario.node[2].wlan[0].mac.dcf packetSentToPeerMulticast:vector(packetBytes) ETV
attr interpolationmode none
attr source ieee80211Multicast(packetSentToPeer)
attr title "packets sent: multicast, vector(packetBytes)"
vector 84 RoutingScenario.node[2].wlan[0].mac.dcf packetSentToPeerBroadcast:vector(packetBytes) ETV
attr interpolationmode none
attr source ieee80211Broadcast(packetSentToPeer)
attr title "packets sent: broadcast , vector(packetBytes)"
vector 85 RoutingScenario.node[2].wlan[0].mac.dcf packetSentToPeerWithoutRetry:vector(packetBytes) ETV
attr interpolationmode none
attr source ieee80211NotRetry(packetSentToPeer)
attr title "packets sent: without retry, vector(packetBytes)"
vector 86 RoutingScenario.node[2].wlan[0].mac.dcf.channelAccess.inProgressFrames queueingTime:vector ETV
attr interpolationmode none
attr source queueingTime(packetDequeued)
attr title "queueing times, vector"
vector 87 RoutingScenario.node[6].wlan[0].mac packetReceivedFromUpper:vector(packetBytes) ETV
attr interpolationmode none
attr title "packets received from upper layer, vector(packetBytes)"
vector 88 RoutingScenario.node[6].wlan[0].mac.dcf.channelAccess.pendingQueue packetPushed:vector(packetBytes) ETV
attr interpolationmode none
attr title "packet pushed, vector(packetBytes)"
vector 89 RoutingScenario.node[6].wlan[0].mac.dcf.channelAccess.pendingQueue queueLength:vector ETV
attr interpolationmode sample-hold
attr source "count(packetPushed) - count(packetPopped) - count(packetRemoved) - count(packetDropped)"
attr title "queue length, vector"
vector 90 RoutingScenario.node[6].wlan[0].mac.dcf.channelAccess.contention backoffPeriodGenerated:vector ETV
attr interpolationmode none
attr title "backoff periods, vector"
vector 91 RoutingScenario.node[6].wlan[0].mac.dcf.channelAccess.contention backoffActive:vector ETV
attr interpolationmode sample-hold
attr source count(backoffStarted)-count(backoffStopped)
attr title "backoff active, vector"
vector 92 RoutingScenario.node[6].wlan[0].mac.dcf.channelAccess.pendingQueue packetPopped:vector(packetBytes) ETV
attr interpolationmode none
attr title "packet popped, vector(packetBytes)"
vector 93 RoutingScenario.node[6].wlan[0].mac.dcf.channelAccess.pendingQueue queueingTime:vector ETV
attr interpolationmode none
attr source queueingTime(packetPopped)
attr title "queueing times, vector"
attr unit s
vector 94 RoutingScenario.node[6].wlan[0].mac.dcf.channelAccess.inProgressFrames queueLength:vector ETV
attr interpolationmode sample-hold
attr source "count(packetEnqueued) - count(packetDequeued)"
attr title "queue length, vector"
vector 95 RoutingScenario.node[6].wlan[0].mac.dcf datarateSelected:vector ETV
attr interpolationmode none
attr title "datarates selected, vector"
vector 96 RoutingScenario.node[6].wlan[0].mac packetSentToLower:vector(packetBytes) ETV
attr interpolationmode none
attr title "packets sent to lower layer, vector(packetBytes)"
vector 97 RoutingScenario.node[6].wlan[0].mac.dcf frameSequenceActive:vector ETV
attr interpolationmode sample-hold
attr source count(frameSequenceStarted)-count(frameSequenceFinished)
attr title "frame sequence active, vector"
vector 98 RoutingScenario.node[6].wlan[0].radio transmissionState:vector ETV
attr interpolationmode sample-hold
attr source transmissionStateChanged
attr title "Radio transmission state, vector"
vector 99 RoutingScenario.node[6].wlan[0].mac.dcf packetSentToPeer:vector(packetBytes) ETV
attr interpolationmode none
attr title "packets sent, vector(packetBytes)"
vector 100 RoutingScenario.node[6].wlan[0].mac.dcf packetSentToPeerMulticast:vector(packetBytes) ETV
attr interpolationmode none
attr source ieee80211Multicast(packetSentToPeer)
attr title "packets sent: multicast, vector(packetBytes)"
vector 101 RoutingScenario.node[6].wlan[0].mac.dcf packetSentToPeerBroadcast:vector(packetBytes) ETV
attr interpolationmode none
attr source ieee80211Broadcast(packetSentToPeer)
attr title "packets sent: broadcast , vector(packetBytes)"
vector 102 RoutingScenario.node[6].wlan[0].mac.dcf packetSentToPeerWithoutRetry:vector(packetBytes) ETV
attr interpolationmode none
attr source ieee80211NotRetry(packetSentToPeer)
attr title "packets sent: without retry, vector(packetBytes)"
vector 103 RoutingScenario.node[6].wlan[0].mac.dcf.channelAccess.inProgressFrames queueingTime:vector ETV
attr interpolationmode none
attr source queueingTime(packetDequeued)
attr title "queueing times, vector"
vector 104 RoutingScenario.node[9].wlan[0].mac packetReceivedFromLower:vector(packetBytes) ETV
attr interpolationmode none
attr title "packets received from lower layer, vector(packetBytes)"
vector 105 RoutingScenario.node[9].wlan[0].mac.dcf packetReceivedFromPeer:vector(packetBytes) ETV
attr interpolationmode none
attr title "packets received, vector(packetBytes)"
vector 106 RoutingScenario.node[9].wlan[0].mac.dcf packetReceivedFromPeerMulticast:vector(packetBytes) ETV
attr interpolationmode none
attr source ieee80211Multicast(packetReceivedFromPeer)
attr title "packets received: multicast, vector(packetBytes)"
vector 107 RoutingScenario.node[9].wlan[0].mac.dcf packetReceivedFromPeerBroadcast:vector(packetBytes) ETV
attr interpolationmode none
attr source ieee80211Broadcast(packetReceivedFromPeer)
attr title "packets received: broadcast, vector(packetBytes)"
vector 108 RoutingScenario.node[9].wlan[0].mac.dcf packetReceivedFromPeerWithoutRetry:vector(packetBytes) ETV
attr interpolationmode none
attr source ieee80211NotRetry(packetReceivedFromPeer)
attr title "packets received: without retry, vector(packetBytes)"
vector 109 RoutingScenario.node[9].wlan[0].mac packetSentToUpper:vector(packetBytes) ETV
attr interpolationmode none
attr title "packets sent to upper layer, vector(packetBytes)"
vector 110 RoutingScenario.node[9].udp packetReceived:vector(packetBytes) ETV
attr interpolationmode none
attr source packetReceived
attr title "packets received, vector(packetBytes)"
vector 111 RoutingScenario.node[9].udp passedUpPk:vector(count) ETV
attr interpolationmode none
attr source packetSentToUpper
attr title "packets passed up, vector(count)"
vector 112 RoutingScenario.node[10].wlan[0].mac packetReceivedFromUpper:vector(packetBytes) ETV
attr interpolationmode none
attr title "packets received from upper layer, vector(packetBytes)"
vector 113 RoutingScenario.node[10].wlan[0].mac.dcf.channelAccess.pendingQueue packetPushed:vector(packetBytes) ETV
attr interpolationmode none
attr title "packet pushed, vector(packetBytes)"
vector 114 RoutingScenario.node[10].wlan[0].mac.dcf.channelAccess.pendingQueue queueLength:vector ETV
attr interpolationmode sample-hold
attr source "count(packetPushed) - count(packetPopped) - count(packetRemoved) - count(packetDropped)"
attr title "queue length, vector"
vector 115 RoutingScenario.node[10].wlan[0].mac.dcf.channelAccess.contention backoffPeriodGenerated:vector ETV
attr interpolationmode none
attr title "backoff periods, vector"
vector 116 RoutingScenario.node[10].wlan[0].mac.dcf.channelAccess.contention backoffActive:vector ETV
attr interpolationmode sample-hold
attr source count(backoffStarted)-count(backoffStopped)
attr title "backoff active, vector"
vector 117 RoutingScenario.node[10].wlan[0].mac.dcf.channelAccess.pendingQueue packetPopped:vector(packetBytes) ETV
attr interpolationmode none
attr title "packet popped, vector(packetBytes)"
vector 118 RoutingScenario.node[10].wlan[0].mac.dcf.channelAccess.pendingQueue queueingTime:vector ETV
attr interpolationmode none
attr source queueingTime(packetPopped)
attr title "queueing times, vector"
attr unit s
vector 119 RoutingScenario.node[10].wlan[0].mac.dcf.channelAccess.inProgressFrames queueLength:vector ETV
attr interpolationmode sample-hold
attr source "count(packetEnqueued) - count(packetDequeued)"
attr title "queue length, vector"
vector 120 RoutingScenario.node[10].wlan[0].mac.dcf datarateSelected:vector ETV
attr interpolationmode none
attr title "datarates selected, vector"
vector 121 RoutingScenario.node[10].wlan[0].mac packetSentToLower:vector(packetBytes) ETV
attr interpolationmode none
attr title "packets sent to lower layer, vector(packetBytes)"
vector 122 RoutingScenario.node[10].wlan[0].mac.dcf frameSequenceActive:vector ETV
attr interpolationmode sample-hold
attr source count(frameSequenceStarted)-count(frameSequenceFinished)
attr title "frame sequence active, vector"
vector 123 RoutingScenario.node[10].wlan[0].radio transmissionState:vector ETV
attr interpolationmode sample-hold
attr source transmissionStateChanged
attr title "Radio transmission state, vector"
vector 124 RoutingScenario.node[7].wlan[0].mac packetReceivedFromUpper:vector(packetBytes) ETV
attr interpolationmode none
attr title "packets received from upper layer, vector(packetBytes)"
vector 125 RoutingScenario.node[7].wlan[0].mac.dcf.channelAccess.pendingQueue packetPushed:vector(packetBytes) ETV
attr interpolationmode none
attr title "packet pushed, vector(packetBytes)"
vector 126 RoutingScenario.node[7].wlan[0].mac.dcf.channelAccess.pendingQueue queueLength:vector ETV
attr interpolationmode sample-hold
attr source "count(packetPushed) - count(packetPopped) - count(packetRemoved) - count(packetDropped)"
attr title "queue length, vector"
vector 127 RoutingScenario.node[7].wlan[0].mac.dcf.channelAccess.contention backoffPeriodGenerated:vector ETV
attr interpolationmode none
attr title "backoff periods, vector"
vector 128 RoutingScenario.node[7].wlan[0].mac.dcf.channelAccess.contention backoffActive:vector ETV
attr interpolationmode sample-hold
attr source count(backoffStarted)-count(backoffStopped)
attr title "backoff active, vector"
vector 129 RoutingScenario.node[7].wlan[0].mac.dcf.channelAccess.pendingQueue packetPopped:vector(packetBytes) ETV
attr interpolationmode none
attr title "packet popped, vector(packetBytes)"
vector 130 RoutingScenario.node[7].wlan[0].mac.dcf.channelAccess.pendingQueue queueingTime:vector ETV
attr interpolationmode none
attr source queueingTime(packetPopped)
attr title "queueing times, vector"
attr unit s
vector 131 RoutingScenario.node[7].wlan[0].mac.dcf.channelAccess.inProgressFrames queueLength:vector ETV
attr interpolationmode sample-hold
attr source "count(packetEnqueued) - count(packetDequeued)"
attr title "queue length, vector"
vector 132 RoutingScenario.node[7].wlan[0].mac.dcf datarateSelected:vector ETV
attr interpolationmode none
attr title "datarates selected, vector"
vector 133 RoutingScenario.node[7].wlan[0].mac packetSentToLower:vector(packetBytes) ETV
attr interpolationmode none
attr title "packets sent to lower layer, vector(packetBytes)"
vector 134 RoutingScenario.node[7].wlan[0].mac.dcf frameSequenceActive:vector ETV
attr interpolationmode sample-hold
attr source count(frameSequenceStarted)-count(frameSequenceFinished)
attr title "frame sequence active, vector"
vector 135 RoutingScenario.node[7].wlan[0].radio transmissionState:vector ETV
attr interpolationmode sample-hold
attr source transmissionStateChanged
attr title "Radio transmission state, vector"
vector 136 RoutingScenario.node[10].wlan[0].mac.dcf packetSentToPeer:vector(packetBytes) ETV
attr interpolationmode none
attr title "packets sent, vector(packetBytes)"
vector 137 RoutingScenario.node[10].wlan[0].mac.dcf packetSentToPeerMulticast:vector(packetBytes) ETV
attr interpolationmode none
attr source ieee80211Multicast(packetSentToPeer)
attr title "packets sent: multicast, vector(packetBytes)"
vector 138 RoutingScenario.node[10].wlan[0].mac.dcf packetSentToPeerBroadcast:vector(packetBytes) ETV
attr interpolationmode none
attr source ieee80211Broadcast(packetSentToPeer)
attr title "packets sent: broadcast , vector(packetBytes)"
vector 139 RoutingScenario.node[10].wlan[0].mac.dcf packetSentToPeerWithoutRetry:vector(packetBytes) ETV
attr interpolationmode none
attr source ieee80211NotRetry(packetSentToPeer)
attr title "packets sent: without retry, vector(packetBytes)"
vector 140 RoutingScenario.node[10].wlan[0].mac.dcf.channelAccess.inProgressFrames queueingTime:vector ETV
attr interpolationmode none
attr source queueingTime(packetDequeued)
attr title "queueing times, vector"
vector 141 RoutingScenario.node[8].wlan[0].mac packetReceivedFromLower:vector(packetBytes) ETV
attr interpolationmode none
attr title "packets received from lower layer, vector(packetBytes)"
vector 142 RoutingScenario.node[8].wlan[0].mac.dcf packetReceivedFromPeer:vector(packetBytes) ETV
attr interpolationmode none
attr title "packets received, vector(packetBytes)"
vector 143 RoutingScenario.node[8].wlan[0].mac.dcf packetReceivedFromPeerMulticast:vector(packetBytes) ETV
attr interpolationmode none
attr source ieee80211Multicast(packetReceivedFromPeer)
attr title "packets received: multicast, vector(packetBytes)"
vector 144 RoutingScenario.node[8].wlan[0].mac.dcf packetReceivedFromPeerBroadcast:vector(packetBytes) ETV
attr interpolationmode none
attr source ieee80211Broadcast(packetReceivedFromPeer)
attr title "packets received: broadcast, vector(packetBytes)"
vector 145 RoutingScenario.node[8].wlan[0].mac.dcf packetReceivedFromPeerWithoutRetry:vector(packetBytes) ETV
attr interpolationmode none
attr source ieee80211NotRetry(packetReceivedFromPeer)
attr title "packets received: without retry, vector(packetBytes)"
vector 146 RoutingScenario.node[8].wlan[0].mac packetSentToUpper:vector(packetBytes) ETV
attr interpolationmode none
attr title "packets sent to upper layer, vector(packetBytes)"
vector 147 RoutingScenario.node[8].udp packetReceived:vector(packetBytes) ETV
attr interpolationmode none
attr source packetReceived
attr title "packets received, vector(packetBytes)"
vector 148 RoutingScenario.node[8].udp passedUpPk:vector(count) ETV
attr interpolationmode none
attr source packetSentToUpper
attr title "packets passed up, vector(count)"
vector 149 RoutingScenario.node[7].wlan[0].mac.dcf packetSentToPeer:vector(packetBytes) ETV
attr interpolationmode none
attr title "packets sent, vector(packetBytes)"
vector 150 RoutingScenario.node[7].wlan[0].mac.dcf packetSentToPeerMulticast:vector(packetBytes) ETV
attr interpolationmode none
attr source ieee80211Multicast(packetSentToPeer)
attr title "packets sent: multicast, vector(packetBytes)"
vector 151 RoutingScenario.node[7].wlan[0].mac.dcf packetSentToPeerBroadcast:vector(packetBytes) ETV
attr interpolationmode none
attr source ieee80211Broadcast(packetSentToPeer)
attr title "packets sent: broadcast , vector(packetBytes)"
vector 152 RoutingScenario.node[7].wlan[0].mac.dcf packetSentToPeerWithoutRetry:vector(packetBytes) ETV
attr interpolationmode none
attr source ieee80211NotRetry(packetSentToPeer)
attr title "packets sent: without retry, vector(packetBytes)"
vector 153 RoutingScenario.node[7].wlan[0].mac.dcf.channelAccess.inProgressFrames queueingTime:vector ETV
attr interpolationmode none
attr source queueingTime(packetDequeued)
attr title "queueing times, vector"
vector 154 RoutingScenario.node[5].wlan[0].mac packetReceivedFromUpper:vector(packetBytes) ETV
attr interpolationmode none
attr title "packets received from upper layer, vector(packetBytes)"
vector 155 RoutingScenario.node[5].wlan[0].mac.dcf.channelAccess.pendingQueue packetPushed:vector(packetBytes) ETV
attr interpolationmode none
attr title "packet pushed, vector(packetBytes)"
vector 156 RoutingScenario.node[5].wlan[0].mac.dcf.channelAccess.pendingQueue queueLength:vector ETV
attr interpolationmode sample-hold
attr source "count(packetPushed) - count(packetPopped) - count(packetRemoved) - count(packetDropped)"
attr title "queue length, vector"
vector 157 RoutingScenario.node[5].wlan[0].mac.dcf.channelAccess.contention backoffPeriodGenerated:vector ETV
attr interpolationmode none
attr title "backoff periods, vector"
vector 158 RoutingScenario.node[5].wlan[0].mac.dcf.channelAccess.contention backoffActive:vector ETV
attr interpolationmode sample-hold
attr source count(backoffStarted)-count(backoffStopped)
attr title "backoff active, vector"
vector 159 RoutingScenario.node[5].wlan[0].mac.dcf.channelAccess.pendingQueue packetPopped:vector(packetBytes) ETV
attr interpolationmode none
attr title "packet popped, vector(packetBytes)"
vector 160 RoutingScenario.node[5].wlan[0].mac.dcf.channelAccess.pendingQueue queueingTime:vector ETV
attr interpolationmode none
attr source queueingTime(packetPopped)
attr title "queueing times, vector"
attr unit s
vector 161 RoutingScenario.node[5].wlan[0].mac.dcf.channelAccess.inProgressFrames queueLength:vector ETV
attr interpolationmode sample-hold
attr source "count(packetEnqueued) - count(packetDequeued)"
attr title "queue length, vector"
vector 162 RoutingScenario.node[5].wlan[0].mac.dcf datarateSelected:vector ETV
attr interpolationmode none
attr title "datarates selected, vector"
vector 163 RoutingScenario.node[5].wlan[0].mac packetSentToLower:vector(packetBytes) ETV
attr interpolationmode none
attr title "packets sent to lower layer, vector(packetBytes)"
vector 164 RoutingScenario.node[5].wlan[0].mac.dcf frameSequenceActive:vector ETV
attr interpolationmode sample-hold
attr source count(frameSequenceStarted)-count(frameSequenceFinished)
attr title "frame sequence active, vector"
vector 165 RoutingScenario.node[5].wlan[0].radio transmissionState:vector ETV
attr interpolationmode sample-hold
attr source transmissionStateChanged
attr title "Radio transmission state, vector"
vector 166 RoutingScenario.node[5].wlan[0].mac.dcf packetSentToPeer:vector(packetBytes) ETV
attr interpolationmode none
attr title "packets sent, vector(packetBytes)"
vector 167 RoutingScenario.node[5].wlan[0].mac.dcf packetSentToPeerMulticast:vector(packetBytes) ETV
attr interpolationmode none
attr source ieee80211Multicast(packetSentToPeer)
attr title "packets sent: multicast, vector(packetBytes)"
vector 168 RoutingScenario.node[5].wlan[0].mac.dcf packetSentToPeerBroadcast:vector(packetBytes) ETV
attr interpolationmode none
attr source ieee80211Broadcast(packetSentToPeer)
attr title "packets sent: broadcast , vector(packetBytes)"
vector 169 RoutingScenario.node[5].wlan[0].mac.dcf packetSentToPeerWithoutRetry:vector(packetBytes) ETV
attr interpolationmode none
attr source ieee80211NotRetry(packetSentToPeer)
attr title "packets sent: without retry, vector(packetBytes)"
vector 170 RoutingScenario.node[5].wlan[0].mac.dcf.channelAccess.inProgressFrames queueingTime:vector ETV
attr interpolationmode none
attr source queueingTime(packetDequeued)
attr title "queueing times, vector"
vector 171 RoutingScenario.node[1].wlan[0].mac packetReceivedFromLower:vector(packetBytes) ETV
attr interpolationmode none
attr title "packets received from lower layer, vector(packetBytes)"
vector 172 RoutingScenario.node[1].wlan[0].mac.dcf packetReceivedFromPeer:vector(packetBytes) ETV
attr interpolationmode none
attr title "packets received, vector(packetBytes)"
vector 173 RoutingScenario.node[1].wlan[0].mac.dcf packetReceivedFromPeerMulticast:vector(packetBytes) ETV
attr interpolationmode none
attr source ieee80211Multicast(packetReceivedFromPeer)
attr title "packets received: multicast, vector(packetBytes)"
vector 174 RoutingScenario.node[1].wlan[0].mac.dcf packetReceivedFromPeerBroadcast:vector(packetBytes) ETV
attr interpolationmode none
attr source ieee80211Broadcast(packetReceivedFromPeer)
attr title "packets received: broadcast, vector(packetBytes)"
vector 175 RoutingScenario.node[1].wlan[0].mac.dcf packetReceivedFromPeerWithoutRetry:vector(packetBytes) ETV
attr interpolationmode none
attr source ieee80211NotRetry(packetReceivedFromPeer)
attr title "packets received: without retry, vector(packetBytes)"
vector 176 RoutingScenario.node[1].wlan[0].mac packetSentToUpper:vector(packetBytes) ETV
attr interpolationmode none
attr title "packets sent to upper layer, vector(packetBytes)"
vector 177 RoutingScenario.node[1].udp packetReceived:vector(packetBytes) ETV
attr interpolationmode none
attr source packetReceived
attr title "packets received, vector(packetBytes)"
vector 178 RoutingScenario.node[1].udp passedUpPk:vector(count) ETV
attr interpolationmode none
attr source packetSentToUpper
attr title "packets passed up, vector(count)"
vector 179 RoutingScenario.node[4].wlan[0].mac packetReceivedFromUpper:vector(packetBytes) ETV
attr interpolationmode none
attr title "packets received from upper layer, vector(packetBytes)"
vector 180 RoutingScenario.node[4].wlan[0].mac.dcf.channelAccess.pendingQueue packetPushed:vector(packetBytes) ETV
attr interpolationmode none
attr title "packet pushed, vector(packetBytes)"
vector 181 RoutingScenario.node[4].wlan[0].mac.dcf.channelAccess.pendingQueue queueLength:vector ETV
attr interpolationmode sample-hold
attr source "count(packetPushed) - count(packetPopped) - count(packetRemoved) - count(packetDropped)"
attr title "queue length, vector"
vector 182 RoutingScenario.node[4].wlan[0].mac.dcf.channelAccess.contention backoffPeriodGenerated:vector ETV
attr interpolationmode none
attr title "backoff periods, vector"
vector 183 RoutingScenario.node[4].wlan[0].mac.dcf.channelAccess.contention backoffActive:vector ETV
attr interpolationmode sample-hold
attr source count(backoffStarted)-count(backoffStopped)
attr title "backoff active, vector"
vector 184 RoutingScenario.node[4].wlan[0].mac.dcf.channelAccess.pendingQueue packetPopped:vector(packetBytes) ETV
attr interpolationmode none
attr title "packet popped, vector(packetBytes)"
vector 185 RoutingScenario.node[4].wlan[0].mac.dcf.channelAccess.pendingQueue queueingTime:vector ETV
attr interpolationmode none
attr source queueingTime(packetPopped)
attr title "queueing times, vector"
attr unit s
vector 186 RoutingScenario.node[4].wlan[0].mac.dcf.channelAccess.inProgressFrames queueLength:vector ETV
attr interpolationmode sample-hold
attr source "count(packetEnqueued) - count(packetDequeued)"
attr title "queue length, vector"
vector 187 RoutingScenario.node[4].wlan[0].mac.dcf datarateSelected:vector ETV
attr interpolationmode none
attr title "datarates selected, vector"
vector 188 RoutingScenario.node[4].wlan[0].mac packetSentToLower:vector(packetBytes) ETV
attr interpolationmode none
attr title "packets sent to lower layer, vector(packetBytes)"
vector 189 RoutingScenario.node[4].wlan[0].mac.dcf frameSequenceActive:vector ETV
attr interpolationmode sample-hold
attr source count(frameSequenceStarted)-count(frameSequenceFinished)
attr title "frame sequence active, vector"
vector 190 RoutingScenario.node[4].wlan[0].radio transmissionState:vector ETV
attr interpolationmode sample-hold
attr source transmissionStateChanged
attr title "Radio transmission state, vector"
vector 191 RoutingScenario.node[4].wlan[0].mac.dcf packetSentToPeer:vector(packetBytes) ETV
attr interpolationmode none
attr title "packets sent, vector(packetBytes)"
vector 192 RoutingScenario.node[4].wlan[0].mac.dcf packetSentToPeerMulticast:vector(packetBytes) ETV
attr interpolationmode none
attr source ieee80211Multicast(packetSentToPeer)
attr title "packets sent: multicast, vector(packetBytes)"
vector 193 RoutingScenario.node[4].wlan[0].mac.dcf packetSentToPeerBroadcast:vector(packetBytes) ETV
attr interpolationmode none
attr source ieee80211Broadcast(packetSentToPeer)
attr title "packets sent: broadcast , vector(packetBytes)"
vector 194 RoutingScenario.node[4].wlan[0].mac.dcf packetSentToPeerWithoutRetry:vector(packetBytes) ETV
attr interpolationmode none
attr source ieee80211NotRetry(packetSentToPeer)
attr title "packets sent: without retry, vector(packetBytes)"
vector 195 RoutingScenario.node[4].wlan[0].mac.dcf.channelAccess.inProgressFrames queueingTime:vector ETV
attr interpolationmode none
attr source queueingTime(packetDequeued)
attr title "queueing times, vector"
vector 196 RoutingScenario.node[1].wlan[0].mac packetReceivedFromUpper:vector(packetBytes) ETV
attr interpolationmode none
attr title "packets received from upper layer, vector(packetBytes)"
vector 197 RoutingScenario.node[1].wlan[0].mac.dcf.channelAccess.pendingQueue packetPushed:vector(packetBytes) ETV
attr interpolationmode none
attr title "packet pushed, vector(packetBytes)"
vector 198 RoutingScenario.node[1].wlan[0].mac.dcf.channelAccess.pendingQueue queueLength:vector ETV
attr interpolationmode sample-hold
attr source "count(packetPushed) - count(packetPopped) - count(packetRemoved) - count(packetDropped)"
attr title "queue length, vector"
vector 199 RoutingScenario.node[1].wlan[0].mac.dcf.channelAccess.contention backoffPeriodGenerated:vector ETV
attr interpolationmode none
attr title "backoff periods, vector"
vector 200 RoutingScenario.node[1].wlan[0].mac.dcf.channelAccess.contention backoffActive:vector ETV
attr interpolationmode sample-hold
attr source count(backoffStarted)-count(backoffStopped)
attr title "backoff active, vector"
vector 201 RoutingScenario.node[1].wlan[0].mac.dcf.channelAccess.pendingQueue packetPopped:vector(packetBytes) ETV
attr interpolationmode none
attr title "packet popped, vector(packetBytes)"
vector 202 RoutingScenario.node[1].wlan[0].mac.dcf.channelAccess.pendingQueue queueingTime:vector ETV
attr interpolationmode none
attr source queueingTime(packetPopped)
attr title "queueing times, vector"
attr unit s
vector 203 RoutingScenario.node[1].wlan[0].mac.dcf.channelAccess.inProgressFrames queueLength:vector ETV
attr interpolationmode sample-hold
attr source "count(packetEnqueued) - count(packetDequeued)"
attr title "queue length, vector"
vector 204 RoutingScenario.node[1].wlan[0].mac.dcf datarateSelected:vector ETV
attr interpolationmode none
attr title "datarates selected, vector"
vector 205 RoutingScenario.node[1].wlan[0].mac packetSentToLower:vector(packetBytes) ETV
attr interpolationmode none
attr title "packets sent to lower layer, vector(packetBytes)"
vector 206 RoutingScenario.node[1].wlan[0].mac.dcf frameSequenceActive:vector ETV
attr interpolationmode sample-hold
attr source count(frameSequenceStarted)-count(frameSequenceFinished)
attr title "frame sequence active, vector"
vector 207 RoutingScenario.node[1].wlan[0].radio transmissionState:vector ETV
attr interpolationmode sample-hold
attr source transmissionStateChanged
attr title "Radio transmission state, vector"
vector 208 RoutingScenario.node[1].wlan[0].mac.dcf packetSentToPeer:vector(packetBytes) ETV
attr interpolationmode none
attr title "packets sent, vector(packetBytes)"
vector 209 RoutingScenario.node[1].wlan[0].mac.dcf packetSentToPeerMulticast:vector(packetBytes) ETV
attr interpolationmode none
attr source ieee80211Multicast(packetSentToPeer)
attr title "packets sent: multicast, vector(packetBytes)"
vector 210 RoutingScenario.node[1].wlan[0].mac.dcf packetSentToPeerBroadcast:vector(packetBytes) ETV
attr interpolationmode none
attr source ieee80211Broadcast(packetSentToPeer)
attr title "packets sent: broadcast , vector(packetBytes)"
vector 211 RoutingScenario.node[1].wlan[0].mac.dcf packetSentToPeerWithoutRetry:vector(packetBytes) ETV
attr interpolationmode none
attr source ieee80211NotRetry(packetSentToPeer)
attr title "packets sent: without retry, vector(packetBytes)"
vector 212 RoutingScenario.node[1].wlan[0].mac.dcf.channelAccess.inProgressFrames queueingTime:vector ETV
attr interpolationmode none
attr source queueingTime(packetDequeued)
attr title "queueing times, vector"
vector 213 RoutingScenario.node[4].wlan[0].mac packetReceivedFromLower:vector(packetBytes) ETV
attr interpolationmode none
attr title "packets received from lower layer, vector(packetBytes)"
vector 214 RoutingScenario.node[4].wlan[0].mac.dcf packetReceivedFromPeer:vector(packetBytes) ETV
attr interpolationmode none
attr title "packets received, vector(packetBytes)"
vector 215 RoutingScenario.node[4].wlan[0].mac.dcf packetReceivedFromPeerMulticast:vector(packetBytes) ETV
attr interpolationmode none
attr source ieee80211Multicast(packetReceivedFromPeer)
attr title "packets received: multicast, vector(packetBytes)"
vector 216 RoutingScenario.node[4].wlan[0].mac.dcf packetReceivedFromPeerBroadcast:vector(packetBytes) ETV
attr interpolationmode none
attr source ieee80211Broadcast(packetReceivedFromPeer)
attr title "packets received: broadcast, vector(packetBytes)"
vector 217 RoutingScenario.node[4].wlan[0].mac.dcf packetReceivedFromPeerWithoutRetry:vector(packetBytes) ETV
attr interpolationmode none
attr source ieee80211NotRetry(packetReceivedFromPeer)
attr title "packets received: without retry, vector(packetBytes)"
vector 218 RoutingScenario.node[4].wlan[0].mac packetSentToUpper:vector(packetBytes) ETV
attr interpolationmode none
attr title "packets sent to upper layer, vector(packetBytes)"
vector 219 RoutingScenario.node[4].udp packetReceived:vector(packetBytes) ETV
attr interpolationmode none
attr source packetReceived
attr title "packets received, vector(packetBytes)"
vector 220 RoutingScenario.node[4].udp passedUpPk:vector(count) ETV
attr interpolationmode none
attr source packetSentToUpper
attr title "packets passed up, vector(count)"
vector 221 RoutingScenario.node[5].wlan[0].mac packetReceivedFromLower:vector(packetBytes) ETV
attr interpolationmode none
attr title "packets received from lower layer, vector(packetBytes)"
vector 222 RoutingScenario.node[5].wlan[0].mac.dcf packetReceivedFromPeer:vector(packetBytes) ETV
attr interpolationmode none
attr title "packets received, vector(packetBytes)"
vector 223 RoutingScenario.node[5].wlan[0].mac.dcf packetReceivedFromPeerMulticast:vector(packetBytes) ETV
attr interpolationmode none
attr source ieee80211Multicast(packetReceivedFromPeer)
attr title "packets received: multicast, vector(packetBytes)"
vector 224 RoutingScenario.node[5].wlan[0].mac.dcf packetReceivedFromPeerBroadcast:vector(packetBytes) ETV
attr interpolationmode none
attr source ieee80211Broadcast(packetReceivedFromPeer)
attr title "packets received: broadcast, vector(packetBytes)"
vector 225 RoutingScenario.node[5].wlan[0].mac.dcf packetReceivedFromPeerWithoutRetry:vector(packetBytes) ETV
attr interpolationmode none
attr source ieee80211NotRetry(packetReceivedFromPeer)
attr title "packets received: without retry, vector(packetBytes)"
vector 226 RoutingScenario.node[5].wlan[0].mac packetSentToUpper:vector(packetBytes) ETV
attr interpolationmode none
attr title "packets sent to upper layer, vector(packetBytes)"
vector 227 RoutingScenario.node[5].udp packetReceived:vector(packetBytes) ETV
attr interpolationmode none
attr source packetReceived
attr title "packets received, vector(packetBytes)"
vector 228 RoutingScenario.node[5].udp passedUpPk:vector(count) ETV
attr interpolationmode none
attr source packetSentToUpper
attr title "packets passed up, vector(count)"
vector 229 RoutingScenario.node[3].wlan[0].mac packetReceivedFromUpper:vector(packetBytes) ETV
attr interpolationmode none
attr title "packets received from upper layer, vector(packetBytes)"
vector 230 RoutingScenario.node[3].wlan[0].mac.dcf.channelAccess.pendingQueue packetPushed:vector(packetBytes) ETV
attr interpolationmode none
attr title "packet pushed, vector(packetBytes)"
vector 231 RoutingScenario.node[3].wlan[0].mac.dcf.channelAccess.pendingQueue queueLength:vector ETV
attr interpolationmode sample-hold
attr source "count(packetPushed) - count(packetPopped) - count(packetRemoved) - count(packetDropped)"
attr title "queue length, vector"
vector 232 RoutingScenario.node[3].wlan[0].mac.dcf.channelAccess.contention backoffPeriodGenerated:vector ETV
attr interpolationmode none
attr title "backoff periods, vector"
vector 233 RoutingScenario.node[3].wlan[0].mac.dcf.channelAccess.contention backoffActive:vector ETV
attr interpolationmode sample-hold
attr source count(backoffStarted)-count(backoffStopped)
attr title "backoff active, vector"
vector 234 RoutingScenario.node[3].wlan[0].mac.dcf.channelAccess.pendingQueue packetPopped:vector(packetBytes) ETV
attr interpolationmode none
attr title "packet popped, vector(packetBytes)"
vector 235 RoutingScenario.node[3].wlan[0].mac.dcf.channelAccess.pendingQueue queueingTime:vector ETV
attr interpolationmode none
attr source queueingTime(packetPopped)
attr title "queueing times, vector"
attr unit s
vector 236 RoutingScenario.node[3].wlan[0].mac.dcf.channelAccess.inProgressFrames queueLength:vector ETV
attr interpolationmode sample-hold
attr source "count(packetEnqueued) - count(packetDequeued)"
attr title "queue length, vector"
vector 237 RoutingScenario.node[3].wlan[0].mac.dcf datarateSelected:vector ETV
attr interpolationmode none
attr title "datarates selected, vector"
vector 238 RoutingScenario.node[3].wlan[0].mac packetSentToLower:vector(packetBytes) ETV
attr interpolationmode none
attr title "packets sent to lower layer, vector(packetBytes)"
vector 239 RoutingScenario.node[3].wlan[0].mac.dcf frameSequenceActive:vector ETV
attr interpolationmode sample-hold
attr source count(frameSequenceStarted)-count(frameSequenceFinished)
attr title "frame sequence active, vector"
vector 240 RoutingScenario.node[3].wlan[0].radio transmissionState:vector ETV
attr interpolationmode sample-hold
attr source transmissionStateChanged
attr title "Radio transmission state, vector"
vector 241 RoutingScenario.node[3].wlan[0].mac.dcf packetSentToPeer:vector(packetBytes) ETV
attr interpolationmode none
attr title "packets sent, vector(packetBytes)"
vector 242 RoutingScenario.node[3].wlan[0].mac.dcf packetSentToPeerMulticast:vector(packetBytes) ETV
attr interpolationmode none
attr source ieee80211Multicast(packetSentToPeer)
attr title "packets sent: multicast, vector(packetBytes)"
vector 243 RoutingScenario.node[3].wlan[0].mac.dcf packetSentToPeerBroadcast:vector(packetBytes) ETV
attr interpolationmode none
attr source ieee80211Broadcast(packetSentToPeer)
attr title "packets sent: broadcast , vector(packetBytes)"
vector 244 RoutingScenario.node[3].wlan[0].mac.dcf packetSentToPeerWithoutRetry:vector(packetBytes) ETV
attr interpolationmode none
attr source ieee80211NotRetry(packetSentToPeer)
attr title "packets sent: without retry, vector(packetBytes)"
vector 245 RoutingScenario.node[3].wlan[0].mac.dcf.channelAccess.inProgressFrames queueingTime:vector ETV
attr interpolationmode none
attr source queueingTime(packetDequeued)
attr title "queueing times, vector"
vector 246 RoutingScenario.node[0].wlan[0].mac packetReceivedFromLower:vector(packetBytes) ETV
attr interpolationmode none
attr title "packets received from lower layer, vector(packetBytes)"
vector 247 RoutingScenario.node[0].wlan[0].mac.dcf packetReceivedFromPeer:vector(packetBytes) ETV
attr interpolationmode none
attr title "packets received, vector(packetBytes)"
vector 248 RoutingScenario.node[0].wlan[0].mac.dcf packetReceivedFromPeerMulticast:vector(packetBytes) ETV
attr interpolationmode none
attr source ieee80211Multicast(packetReceivedFromPeer)
attr title "packets received: multicast, vector(packetBytes)"
vector 249 RoutingScenario.node[0].wlan[0].mac.dcf packetReceivedFromPeerBroadcast:vector(packetBytes) ETV
attr interpolationmode none
attr source ieee80211Broadcast(packetReceivedFromPeer)
attr title "packets received: broadcast, vector(packetBytes)"
vector 250 RoutingScenario.node[0].wlan[0].mac.dcf packetReceivedFromPeerWithoutRetry:vector(packetBytes) ETV
attr interpolationmode none
attr source ieee80211NotRetry(packetReceivedFromPeer)
attr title "packets received: without retry, vector(packetBytes)"
vector 251 RoutingScenario.node[0].wlan[0].mac packetSentToUpper:vector(packetBytes) ETV
attr interpolationmode none
attr title "packets sent to upper layer, vector(packetBytes)"
vector 252 RoutingScenario.node[0].udp passedUpPk:vector(count) ETV
attr interpolationmode none
attr source packetSentToUpper
attr title "packets passed up, vector(count)"
vector 253 RoutingScenario.node[0].ipv4.arp arpRequestSent:vector(packetBytes) ETV
attr source arpRequestSent
attr title "ARP request sent, vector(packetBytes)"
vector 254 RoutingScenario.node[0].wlan[0].mac packetReceivedFromUpper:vector(packetBytes) ETV
attr interpolationmode none
attr title "packets received from upper layer, vector(packetBytes)"
vector 255 RoutingScenario.node[0].wlan[0].mac.dcf.channelAccess.pendingQueue packetPushed:vector(packetBytes) ETV
attr interpolationmode none
attr title "packet pushed, vector(packetBytes)"
vector 256 RoutingScenario.node[0].wlan[0].mac.dcf.channelAccess.pendingQueue queueLength:vector ETV
attr interpolationmode sample-hold
attr source "count(packetPushed) - count(packetPopped) - count(packetRemoved) - count(packetDropped)"
attr title "queue length, vector"
vector 257 RoutingScenario.node[0].wlan[0].mac.dcf.channelAccess.contention backoffPeriodGenerated:vector ETV
attr interpolationmode none
attr title "backoff periods, vector"
vector 258 RoutingScenario.node[0].wlan[0].mac.dcf.channelAccess.contention backoffActive:vector ETV
attr interpolationmode sample-hold
attr source count(backoffStarted)-count(backoffStopped)
attr title "backoff active, vector"
vector 259 RoutingScenario.node[9].wlan[0].mac packetReceivedFromUpper:vector(packetBytes) ETV
attr interpolationmode none
attr title "packets received from upper layer, vector(packetBytes)"
vector 260 RoutingScenario.node[9].wlan[0].mac.dcf.channelAccess.pendingQueue packetPushed:vector(packetBytes) ETV
attr interpolationmode none
attr title "packet pushed, vector(packetBytes)"
vector 261 RoutingScenario.node[9].wlan[0].mac.dcf.channelAccess.pendingQueue queueLength:vector ETV
attr interpolationmode sample-hold
attr source "count(packetPushed) - count(packetPopped) - count(packetRemoved) - count(packetDropped)"
attr title "queue length, vector"
vector 262 RoutingScenario.node[9].wlan[0].mac.dcf.channelAccess.contention backoffPeriodGenerated:vector ETV
attr interpolationmode none
attr title "backoff periods, vector"
vector 263 RoutingScenario.node[9].wlan[0].mac.dcf.channelAccess.contention backoffActive:vector ETV
attr interpolationmode sample-hold
attr source count(backoffStarted)-count(backoffStopped)
attr title "backoff active, vector"
vector 264 RoutingScenario.node[9].wlan[0].mac.dcf.channelAccess.pendingQueue packetPopped:vector(packetBytes) ETV
attr interpolationmode none
attr title "packet popped, vector(packetBytes)"
vector 265 RoutingScenario.node[9].wlan[0].mac.dcf.channelAccess.pendingQueue queueingTime:vector ETV
attr interpolationmode none
attr source queueingTime(packetPopped)
attr title "queueing times, vector"
attr unit s
vector 266 RoutingScenario.node[9].wlan[0].mac.dcf.channelAccess.inProgressFrames queueLength:vector ETV
attr interpolationmode sample-hold
attr source "count(packetEnqueued) - count(packetDequeued)"
attr title "queue length, vector"
vector 267 RoutingScenario.node[9].wlan[0].mac.dcf datarateSelected:vector ETV
attr interpolationmode none
attr title "datarates selected, vector"
vector 268 RoutingScenario.node[9].wlan[0].mac packetSentToLower:vector(packetBytes) ETV
attr interpolationmode none
attr title "packets sent to lower layer, vector(packetBytes)"
vector 269 RoutingScenario.node[9].wlan[0].mac.dcf frameSequenceActive:vector ETV
attr interpolationmode sample-hold
attr source count(frameSequenceStarted)-count(frameSequenceFinished)
attr title "frame sequence active, vector"
vector 270 RoutingScenario.node[9].wlan[0].radio transmissionState:vector ETV
attr interpolationmode sample-hold
attr source transmissionStateChanged
attr title "Radio transmission state, vector"
vector 271 RoutingScenario.node[0].wlan[0].mac.dcf.channelAccess.pendingQueue packetPopped:vector(packetBytes) ETV
attr interpolationmode none
attr title "packet popped, vector(packetBytes)"
vector 272 RoutingScenario.node[0].wlan[0].mac.dcf.channelAccess.pendingQueue queueingTime:vector ETV
attr interpolationmode none
attr source queueingTime(packetPopped)
attr title "queueing times, vector"
attr unit s
vector 273 RoutingScenario.node[0].wlan[0].mac.dcf.channelAccess.inProgressFrames queueLength:vector ETV
attr interpolationmode sample-hold
attr source "count(packetEnqueued) - count(packetDequeued)"
attr title "queue length, vector"
vector 274 RoutingScenario.node[0].wlan[0].mac.dcf datarateSelected:vector ETV
attr interpolationmode none
attr title "datarates selected, vector"
vector 275 RoutingScenario.node[0].wlan[0].mac packetSentToLower:vector(packetBytes) ETV
attr interpolationmode none
attr title "packets sent to lower layer, vector(packetBytes)"
vector 276 RoutingScenario.node[0].wlan[0].mac.dcf frameSequenceActive:vector ETV
attr interpolationmode sample-hold
attr source count(frameSequenceStarted)-count(frameSequenceFinished)
attr title "frame sequence active, vector"
vector 277 RoutingScenario.node[0].wlan[0].radio transmissionState:vector ETV
attr interpolationmode sample-hold
attr source transmissionStateChanged
attr title "Radio transmission state, vector"
vector 278 RoutingScenario.node[9].wlan[0].mac.dcf packetSentToPeer:vector(packetBytes) ETV
attr interpolationmode none
attr title "packets sent, vector(packetBytes)"
vector 279 RoutingScenario.node[9].wlan[0].mac.dcf packetSentToPeerMulticast:vector(packetBytes) ETV
attr interpolationmode none
attr source ieee80211Multicast(packetSentToPeer)
attr title "packets sent: multicast, vector(packetBytes)"
vector 280 RoutingScenario.node[9].wlan[0].mac.dcf packetSentToPeerBroadcast:vector(packetBytes) ETV
attr interpolationmode none
attr source ieee80211Broadcast(packetSentToPeer)
attr title "packets sent: broadcast , vector(packetBytes)"
vector 281 RoutingScenario.node[9].wlan[0].mac.dcf packetSentToPeerWithoutRetry:vector(packetBytes) ETV
attr interpolationmode none
attr source ieee80211NotRetry(packetSentToPeer)
attr title "packets sent: without retry, vector(packetBytes)"
vector 282 RoutingScenario.node[9].wlan[0].mac.dcf.channelAccess.inProgressFrames queueingTime:vector ETV
attr interpolationmode none
attr source queueingTime(packetDequeued)
attr title "queueing times, vector"
vector 283 RoutingScenario.node[6].wlan[0].mac packetReceivedFromLower:vector(packetBytes) ETV
attr interpolationmode none
attr title "packets received from lower layer, vector(packetBytes)"
vector 284 RoutingScenario.node[6].wlan[0].mac.dcf packetReceivedFromPeer:vector(packetBytes) ETV
attr interpolationmode none
attr title "packets received, vector(packetBytes)"
vector 285 RoutingScenario.node[6].wlan[0].mac.dcf packetReceivedFromPeerMulticast:vector(packetBytes) ETV
attr interpolationmode none
attr source ieee80211Multicast(packetReceivedFromPeer)
attr title "packets received: multicast, vector(packetBytes)"
vector 286 RoutingScenario.node[6].wlan[0].mac.dcf packetReceivedFromPeerBroadcast:vector(packetBytes) ETV
attr interpolationmode none
attr source ieee80211Broadcast(packetReceivedFromPeer)
attr title "packets received: broadcast, vector(packetBytes)"
vector 287 RoutingScenario.node[6].wlan[0].mac.dcf packetReceivedFromPeerWithoutRetry:vector(packetBytes) ETV
attr interpolationmode none
attr source ieee80211NotRetry(packetReceivedFromPeer)
attr title "packets received: without retry, vector(packetBytes)"
vector 288 RoutingScenario.node[6].wlan[0].mac packetSentToUpper:vector(packetBytes) ETV
attr interpolationmode none
attr title "packets sent to upper layer, vector(packetBytes)"
vector 289 RoutingScenario.node[6].udp packetReceived:vector(packetBytes) ETV
attr interpolationmode none
attr source packetReceived
attr title "packets received, vector(packetBytes)"
vector 290 RoutingScenario.node[6].udp passedUpPk:vector(count) ETV
attr interpolationmode none
attr source packetSentToUpper
attr title "packets passed up, vector(count)"
vector 291 RoutingScenario.node[0].wlan[0].mac.dcf packetSentToPeer:vector(packetBytes) ETV
attr interpolationmode none
attr title "packets sent, vector(packetBytes)"
vector 292 RoutingScenario.node[0].wlan[0].mac.dcf packetSentToPeerMulticast:vector(packetBytes) ETV
attr interpolationmode none
attr source ieee80211Multicast(packetSentToPeer)
attr title "packets sent: multicast, vector(packetBytes)"
vector 293 RoutingScenario.node[0].wlan[0].mac.dcf packetSentToPeerBroadcast:vector(packetBytes) ETV
attr interpolationmode none
attr source ieee80211Broadcast(packetSentToPeer)
attr title "packets sent: broadcast , vector(packetBytes)"
vector 294 RoutingScenario.node[0].wlan[0].mac.dcf packetSentToPeerWithoutRetry:vector(packetBytes) ETV
attr interpolationmode none
attr source ieee80211NotRetry(packetSentToPeer)
attr title "packets sent: without retry, vector(packetBytes)"
vector 295 RoutingScenario.node[0].wlan[0].mac.dcf.channelAccess.inProgressFrames queueingTime:vector ETV
attr interpolationmode none
attr source queueingTime(packetDequeued)
attr title "queueing times, vector"
vector 296 RoutingScenario.node[3].wlan[0].mac packetReceivedFromLower:vector(packetBytes) ETV
attr interpolationmode none
attr title "packets received from lower layer, vector(packetBytes)"
vector 297 RoutingScenario.node[3].wlan[0].mac packetDrop:vector(packetBytes) ETV
attr interpolationmode none
attr source packetDropped
attr title "packet drops, vector(packetBytes)"
vector 298 RoutingScenario.node[3].wlan[0].mac packetDropIncorrectlyReceived:vector(packetBytes) ETV
attr interpolationmode none
attr source packetDropReasonIsIncorrectlyReceived(packetDropped)
attr title "packet drops: incorrectly received, vector(packetBytes)"
vector 299 RoutingScenario.node[8].wlan[0].mac packetReceivedFromUpper:vector(packetBytes) ETV
attr interpolationmode none
attr title "packets received from upper layer, vector(packetBytes)"
vector 300 RoutingScenario.node[8].wlan[0].mac.dcf.channelAccess.pendingQueue packetPushed:vector(packetBytes) ETV
attr interpolationmode none
attr title "packet pushed, vector(packetBytes)"
vector 301 RoutingScenario.node[8].wlan[0].mac.dcf.channelAccess.pendingQueue queueLength:vector ETV
attr interpolationmode sample-hold
attr source "count(packetPushed) - count(packetPopped) - count(packetRemoved) - count(packetDropped)"
attr title "queue length, vector"
vector 302 RoutingScenario.node[8].wlan[0].mac.dcf.channelAccess.contention backoffPeriodGenerated:vector ETV
attr interpolationmode none
attr title "backoff periods, vector"
vector 303 RoutingScenario.node[8].wlan[0].mac.dcf.channelAccess.contention backoffActive:vector ETV
attr interpolationmode sample-hold
attr source count(backoffStarted)-count(backoffStopped)
attr title "backoff active, vector"
vector 304 RoutingScenario.node[8].wlan[0].mac.dcf.channelAccess.pendingQueue packetPopped:vector(packetBytes) ETV
attr interpolationmode none
attr title "packet popped, vector(packetBytes)"
vector 305 RoutingScenario.node[8].wlan[0].mac.dcf.channelAccess.pendingQueue queueingTime:vector ETV
attr interpolationmode none
attr source queueingTime(packetPopped)
attr title "queueing times, vector"
attr unit s
vector 306 RoutingScenario.node[8].wlan[0].mac.dcf.channelAccess.inProgressFrames queueLength:vector ETV
attr interpolationmode sample-hold
attr source "count(packetEnqueued) - count(packetDequeued)"
attr title "queue length, vector"
vector 307 RoutingScenario.node[8].wlan[0].mac.dcf datarateSelected:vector ETV
attr interpolationmode none
attr title "datarates selected, vector"
vector 308 RoutingScenario.node[8].wlan[0].mac packetSentToLower:vector(packetBytes) ETV
attr interpolationmode none
attr title "packets sent to lower layer, vector(packetBytes)"
vector 309 RoutingScenario.node[8].wlan[0].mac.dcf frameSequenceActive:vector ETV
attr interpolationmode sample-hold
attr source count(frameSequenceStarted)-count(frameSequenceFinished)
attr title "frame sequence active, vector"
vector 310 RoutingScenario.node[8].wlan[0].radio transmissionState:vector ETV
attr interpolationmode sample-hold
attr source transmissionStateChanged
attr title "Radio transmission state, vector"
vector 311 RoutingScenario.node[8].wlan[0].mac.dcf packetSentToPeer:vector(packetBytes) ETV
attr interpolationmode none
attr title "packets sent, vector(packetBytes)"
vector 312 RoutingScenario.node[8].wlan[0].mac.dcf packetSentToPeerMulticast:vector(packetBytes) ETV
attr interpolationmode none
attr source ieee80211Multicast(packetSentToPeer)
attr title "packets sent: multicast, vector(packetBytes)"
vector 313 RoutingScenario.node[8].wlan[0].mac.dcf packetSentToPeerBroadcast:vector(packetBytes) ETV
attr interpolationmode none
attr source ieee80211Broadcast(packetSentToPeer)
attr title "packets sent: broadcast , vector(packetBytes)"
vector 314 RoutingScenario.node[8].wlan[0].mac.dcf packetSentToPeerWithoutRetry:vector(packetBytes) ETV
attr interpolationmode none
attr source ieee80211NotRetry(packetSentToPeer)
attr title "packets sent: without retry, vector(packetBytes)"
vector 315 RoutingScenario.node[8].wlan[0].mac.dcf.channelAccess.inProgressFrames queueingTime:vector ETV
attr interpolationmode none
attr source queueingTime(packetDequeued)
attr title "queueing times, vector"
vector 316 RoutingScenario.node[10].wlan[0].mac packetReceivedFromLower:vector(packetBytes) ETV
attr interpolationmode none
attr title "packets received from lower layer, vector(packetBytes)"
vector 317 RoutingScenario.node[10].wlan[0].mac.dcf packetReceivedFromPeer:vector(packetBytes) ETV
attr interpolationmode none
attr title "packets received, vector(packetBytes)"
vector 318 RoutingScenario.node[10].wlan[0].mac.dcf packetReceivedFromPeerMulticast:vector(packetBytes) ETV
attr interpolationmode none
attr source ieee80211Multicast(packetReceivedFromPeer)
attr title "packets received: multicast, vector(packetBytes)"
vector 319 RoutingScenario.node[10].wlan[0].mac.dcf packetReceivedFromPeerBroadcast:vector(packetBytes) ETV
attr interpolationmode none
attr source ieee80211Broadcast(packetReceivedFromPeer)
attr title "packets received: broadcast, vector(packetBytes)"
vector 320 RoutingScenario.node[10].wlan[0].mac.dcf packetReceivedFromPeerWithoutRetry:vector(packetBytes) ETV
attr interpolationmode none
attr source ieee80211NotRetry(packetReceivedFromPeer)
attr title "packets received: without retry, vector(packetBytes)"
vector 321 RoutingScenario.node[10].wlan[0].mac packetSentToUpper:vector(packetBytes) ETV
attr interpolationmode none
attr title "packets sent to upper layer, vector(packetBytes)"
vector 322 RoutingScenario.node[10].udp packetReceived:vector(packetBytes) ETV
attr interpolationmode none
attr source packetReceived
attr title "packets received, vector(packetBytes)"
vector 323 RoutingScenario.node[10].udp passedUpPk:vector(count) ETV
attr interpolationmode none
attr source packetSentToUpper
attr title "packets passed up, vector(count)"
vector 324 RoutingScenario.node[11].wlan[0].radio radioMode:vector ETV
attr interpolationmode sample-hold
attr source radioModeChanged
attr title "Radio mode, vector"
vector 325 RoutingScenario.node[11].wlan[0].radio radioChannel:vector ETV
attr interpolationmode sample-hold
attr source radioChannelChanged
attr title "Radio channel, vector"
vector 326 RoutingScenario.node[11].wlan[0].radio receptionState:vector ETV
attr interpolationmode sample-hold
attr source receptionStateChanged
attr title "Radio reception state, vector"
vector 327 RoutingScenario.node[11].wlan[0].mac.dcf.recoveryProcedure contentionWindowChanged:vector ETV
attr interpolationmode sample-hold
attr title "contention window, vector"
vector 328 RoutingScenario.node[12].wlan[0].radio radioMode:vector ETV
attr interpolationmode sample-hold
attr source radioModeChanged
attr title "Radio mode, vector"
vector 329 RoutingScenario.node[12].wlan[0].radio radioChannel:vector ETV
attr interpolationmode sample-hold
attr source radioChannelChanged
attr title "Radio channel, vector"
vector 330 RoutingScenario.node[12].wlan[0].radio receptionState:vector ETV
attr interpolationmode sample-hold
attr source receptionStateChanged
attr title "Radio reception state, vector"
vector 331 RoutingScenario.node[12].wlan[0].mac.dcf.recoveryProcedure contentionWindowChanged:vector ETV
attr interpolationmode sample-hold
attr title "contention window, vector"
vector 332 RoutingScenario.node[13].wlan[0].radio radioMode:vector ETV
attr interpolationmode sample-hold
attr source radioModeChanged
attr title "Radio mode, vector"
vector 333 RoutingScenario.node[13].wlan[0].radio radioChannel:vector ETV
attr interpolationmode sample-hold
attr source radioChannelChanged
attr title "Radio channel, vector"
vector 334 RoutingScenario.node[13].wlan[0].radio receptionState:vector ETV
attr interpolationmode sample-hold
attr source receptionStateChanged
attr title "Radio reception state, vector"
vector 335 RoutingScenario.node[13].wlan[0].mac.dcf.recoveryProcedure contentionWindowChanged:vector ETV
attr interpolationmode sample-hold
attr title "contention window, vector"
vector 336 RoutingScenario.node[14].wlan[0].radio radioMode:vector ETV
attr interpolationmode sample-hold
attr source radioModeChanged
attr title "Radio mode, vector"
vector 337 RoutingScenario.node[14].wlan[0].radio radioChannel:vector ETV
attr interpolationmode sample-hold
attr source radioChannelChanged
attr title "Radio channel, vector"
vector 338 RoutingScenario.node[14].wlan[0].radio receptionState:vector ETV
attr interpolationmode sample-hold
attr source receptionStateChanged
attr title "Radio reception state, vector"
vector 339 RoutingScenario.node[14].wlan[0].mac.dcf.recoveryProcedure contentionWindowChanged:vector ETV
attr interpolationmode sample-hold
attr title "contention window, vector"
vector 340 RoutingScenario.node[15].wlan[0].radio radioMode:vector ETV
attr interpolationmode sample-hold
attr source radioModeChanged
attr title "Radio mode, vector"
vector 341 RoutingScenario.node[15].wlan[0].radio radioChannel:vector ETV
attr interpolationmode sample-hold
attr source radioChannelChanged
attr title "Radio channel, vector"
vector 342 RoutingScenario.node[15].wlan[0].radio receptionState:vector ETV
attr interpolationmode sample-hold
attr source receptionStateChanged
attr title "Radio reception state, vector"
vector 343 RoutingScenario.node[15].wlan[0].mac.dcf.recoveryProcedure contentionWindowChanged:vector ETV
attr interpolationmode sample-hold
attr title "contention window, vector"
vector 344 RoutingScenario.node[16].wlan[0].radio radioMode:vector ETV
attr interpolationmode sample-hold
attr source radioModeChanged
attr title "Radio mode, vector"
vector 345 RoutingScenario.node[16].wlan[0].radio radioChannel:vector ETV
attr interpolationmode sample-hold
attr source radioChannelChanged
attr title "Radio channel, vector"
vector 346 RoutingScenario.node[16].wlan[0].radio receptionState:vector ETV
attr interpolationmode sample-hold
attr source receptionStateChanged
attr title "Radio reception state, vector"
vector 347 RoutingScenario.node[16].wlan[0].mac.dcf.recoveryProcedure contentionWindowChanged:vector ETV
attr interpolationmode sample-hold
attr title "contention window, vector"
vector 348 RoutingScenario.node[17].wlan[0].radio radioMode:vector ETV
attr interpolationmode sample-hold
attr source radioModeChanged
attr title "Radio mode, vector"
vector 349 RoutingScenario.node[17].wlan[0].radio radioChannel:vector ETV
attr interpolationmode sample-hold
attr source radioChannelChanged
attr title "Radio channel, vector"
vector 350 RoutingScenario.node[17].wlan[0].radio receptionState:vector ETV
attr interpolationmode sample-hold
attr source receptionStateChanged
attr title "Radio reception state, vector"
vector 351 RoutingScenario.node[17].wlan[0].mac.dcf.recoveryProcedure contentionWindowChanged:vector ETV
attr interpolationmode sample-hold
attr title "contention window, vector"
vector 352 RoutingScenario.node[18].wlan[0].radio radioMode:vector ETV
attr interpolationmode sample-hold
attr source radioModeChanged
attr title "Radio mode, vector"
vector 353 RoutingScenario.node[18].wlan[0].radio radioChannel:vector ETV
attr interpolationmode sample-hold
attr source radioChannelChanged
attr title "Radio channel, vector"
vector 354 RoutingScenario.node[18].wlan[0].radio receptionState:vector ETV
attr interpolationmode sample-hold
attr source receptionStateChanged
attr title "Radio reception state, vector"
vector 355 RoutingScenario.node[18].wlan[0].mac.dcf.recoveryProcedure contentionWindowChanged:vector ETV
attr interpolationmode sample-hold
attr title "contention window, vector"
vector 356 RoutingScenario.node[19].wlan[0].radio radioMode:vector ETV
attr interpolationmode sample-hold
attr source radioModeChanged
attr title "Radio mode, vector"
vector 357 RoutingScenario.node[19].wlan[0].radio radioChannel:vector ETV
attr interpolationmode sample-hold
attr source radioChannelChanged
attr title "Radio channel, vector"
vector 358 RoutingScenario.node[19].wlan[0].radio receptionState:vector ETV
attr interpolationmode sample-hold
attr source receptionStateChanged
attr title "Radio reception state, vector"
vector 359 RoutingScenario.node[19].wlan[0].mac.dcf.recoveryProcedure contentionWindowChanged:vector ETV
attr interpolationmode sample-hold
attr title "contention window, vector"
vector 360 RoutingScenario.node[11].app[0] packetSent:vector(packetBytes) ETV
attr interpolationmode none
attr source packetSent
attr title "packets sent, vector(packetBytes)"
vector 361 RoutingScenario.node[12].app[0] packetSent:vector(packetBytes) ETV
attr interpolationmode none
attr source packetSent
attr title "packets sent, vector(packetBytes)"
vector 362 RoutingScenario.node[13].app[0] packetSent:vector(packetBytes) ETV
attr interpolationmode none
attr source packetSent
attr title "packets sent, vector(packetBytes)"
vector 363 RoutingScenario.node[14].app[0] packetSent:vector(packetBytes) ETV
attr interpolationmode none
attr source packetSent
attr title "packets sent, vector(packetBytes)"
vector 364 RoutingScenario.node[15].app[0] packetSent:vector(packetBytes) ETV
attr interpolationmode none
attr source packetSent
attr title "packets sent, vector(packetBytes)"
vector 365 RoutingScenario.node[16].app[0] packetSent:vector(packetBytes) ETV
attr interpolationmode none
attr source packetSent
attr title "packets sent, vector(packetBytes)"
vector 366 RoutingScenario.node[17].app[0] packetSent:vector(packetBytes) ETV
attr interpolationmode none
attr source packetSent
attr title "packets sent, vector(packetBytes)"
vector 367 RoutingScenario.node[18].app[0] packetSent:vector(packetBytes) ETV
attr interpolationmode none
attr source packetSent
attr title "packets sent, vector(packetBytes)"
vector 368 RoutingScenario.node[19].app[0] packetSent:vector(packetBytes) ETV
attr interpolationmode none
attr source packetSent
attr title "packets sent, vector(packetBytes)"
vector 369 RoutingScenario.node[11].udp packetSent:vector(packetBytes) ETV
attr interpolationmode none
attr source packetSent
attr title "packets sent, vector(packetBytes)"
vector 370 RoutingScenario.node[12].udp packetSent:vector(packetBytes) ETV
attr interpolationmode none
attr source packetSent
attr title "packets sent, vector(packetBytes)"
vector 371 RoutingScenario.node[13].udp packetSent:vector(packetBytes) ETV
attr interpolationmode none
attr source packetSent
attr title "packets sent, vector(packetBytes)"
vector 372 RoutingScenario.node[14].udp packetSent:vector(packetBytes) ETV
attr interpolationmode none
attr source packetSent
attr title "packets sent, vector(packetBytes)"
vector 373 RoutingScenario.node[15].udp packetSent:vector(packetBytes) ETV
attr interpolationmode none
attr source packetSent
attr title "packets sent, vector(packetBytes)"
vector 374 RoutingScenario.node[16].udp packetSent:vector(packetBytes) ETV
attr interpolationmode none
attr source packetSent
attr title "packets sent, vector(packetBytes)"
vector 375 RoutingScenario.node[17].udp packetSent:vector(packetBytes) ETV
attr interpolationmode none
attr source packetSent
attr title "packets sent, vector(packetBytes)"
vector 376 RoutingScenario.node[18].udp packetSent:vector(packetBytes) ETV
attr interpolationmode none
attr source packetSent
attr title "packets sent, vector(packetBytes)"
vector 377 RoutingScenario.node[19].udp packetSent:vector(packetBytes) ETV
attr interpolationmode none
attr source packetSent
attr title "packets sent, vector(packetBytes)"
vector 378 RoutingScenario.node[16].wlan[0].mac packetReceivedFromUpper:vector(packetBytes) ETV
attr interpolationmode none
attr title "packets received from upper layer, vector(packetBytes)"
vector 379 RoutingScenario.node[16].wlan[0].mac.dcf.channelAccess.pendingQueue packetPushed:vector(packetBytes) ETV
attr interpolationmode none
attr title "packet pushed, vector(packetBytes)"
vector 380 RoutingScenario.node[16].wlan[0].mac.dcf.channelAccess.pendingQueue queueLength:vector ETV
attr interpolationmode sample-hold
attr source "count(packetPushed) - count(packetPopped) - count(packetRemoved) - count(packetDropped)"
attr title "queue length, vector"
[...]
851	58123	5.8	0
851	58123	5.9	0
851	58123	6	0
851	58123	6.1	0
851	58123	6.2	0
851	58123	6.3	0
851	58123	6.4	0
851	58123	6.5	0
851	58123	6.6	0
851	58123	6.7	0
851	58123	6.8	0
851	58123	6.9	0
851	58123	7	0
851	58123	7.1	0
851	58123	7.2	0
851	58123	7.3	0
851	58123	7.4	0
851	58123	7.5	0
851	58123	7.6	0
851	58123	7.661439058438	0
852	58123	0.1	0
852	58123	0.2	0
852	58123	0.3	0
852	58123	0.4	0
852	58123	0.5	0
852	58123	0.6	0
852	58123	0.7	0
852	58123	0.8	0
852	58123	0.9	0
852	58123	1	0
852	58123	1.1	0
852	58123	1.2	0
852	58123	1.3	0
852	58123	1.4	0
852	58123	1.5	0
852	58123	1.6	0
852	58123	1.7	0
852	58123	1.8	0
852	58123	1.9	0
852	58123	2	0
852	58123	2.1	0
852	58123	2.2	0
852	58123	2.3	0
852	58123	2.4	0
852	58123	2.5	0
852	58123	2.6	0
852	58123	2.7	0
852	58123	2.8	0
852	58123	2.9	0
852	58123	3	0
852	58123	3.1	0
852	58123	3.2	0
852	58123	3.3	0
852	58123	3.4	0
852	58123	3.5	0
852	58123	3.6	0
852	58123	3.7	0
852	58123	3.8	0
852	58123	3.9	0
852	58123	4	0
852	58123	4.1	0
852	58123	4.2	0
852	58123	4.3	0
852	58123	4.4	0
852	58123	4.5	0
852	58123	4.6	0
852	58123	4.7	0
852	58123	4.8	0
852	58123	4.9	0
852	58123	5	0
852	58123	5.1	0
852	58123	5.2	0
852	58123	5.3	0
852	58123	5.4	0
852	58123	5.5	0
852	58123	5.6	0
852	58123	5.7	0
852	58123	5.8	0
852	58123	5.9	0
852	58123	6	0
852	58123	6.1	0
852	58123	6.2	0
852	58123	6.3	0
852	58123	6.4	0
852	58123	6.5	0
852	58123	6.6	0
852	58123	6.7	0
852	58123	6.8	0
852	58123	6.9	0
852	58123	7	0
852	58123	7.1	0
852	58123	7.2	0
852	58123	7.3	0
852	58123	7.4	0
852	58123	7.5	0
852	58123	7.6	0
852	58123	7.661439058438	0
853	58123	0.1	0
853	58123	0.2	0
853	58123	0.3	0
853	58123	0.4	0
853	58123	0.5	0
853	58123	0.6	0
853	58123	0.7	0
853	58123	0.8	0
853	58123	0.9	0
853	58123	1	0
853	58123	1.1	0
853	58123	1.2	0
853	58123	1.3	0
853	58123	1.4	0
853	58123	1.5	0
853	58123	1.6	0
853	58123	1.7	0
853	58123	1.8	0
853	58123	1.9	0
853	58123	2	0
853	58123	2.1	0
853	58123	2.2	0
853	58123	2.3	0
853	58123	2.4	0
853	58123	2.5	0
853	58123	2.6	0
853	58123	2.7	0
853	58123	2.8	0
853	58123	2.9	0
853	58123	3	0
853	58123	3.1	0
853	58123	3.2	0
853	58123	3.3	0
853	58123	3.4	0
853	58123	3.5	0
853	58123	3.6	0
853	58123	3.7	0
853	58123	3.8	0
853	58123	3.9	0
853	58123	4	0
853	58123	4.1	0
853	58123	4.2	0
853	58123	4.3	0
853	58123	4.4	0
853	58123	4.5	0
853	58123	4.6	0
853	58123	4.7	0
853	58123	4.8	0
853	58123	4.9	0
853	58123	5	0
853	58123	5.1	0
853	58123	5.2	0
853	58123	5.3	0
853	58123	5.4	0
853	58123	5.5	0
853	58123	5.6	0
853	58123	5.7	0
853	58123	5.8	0
853	58123	5.9	0
853	58123	6	0
853	58123	6.1	0
853	58123	6.2	0
853	58123	6.3	0
853	58123	6.4	0
853	58123	6.5	0
853	58123	6.6	0
853	58123	6.7	0
853	58123	6.8	0
853	58123	6.9	0
853	58123	7	0
853	58123	7.1	0
853	58123	7.2	0
853	58123	7.3	0
853	58123	7.4	0
853	58123	7.5	0
853	58123	7.6	0
853	58123	7.661439058438	0
854	58123	0.1	0
854	58123	0.2	0
854	58123	0.3	0
854	58123	0.4	0
854	58123	0.5	0
854	58123	0.6	0
854	58123	0.7	0
854	58123	0.8	0
854	58123	0.9	0
854	58123	1	0
854	58123	1.1	0
854	58123	1.2	0
854	58123	1.3	0
854	58123	1.4	0
854	58123	1.5	0
854	58123	1.6	0
854	58123	1.7	0
854	58123	1.8	0
854	58123	1.9	0
854	58123	2	0
854	58123	2.1	0
854	58123	2.2	0
854	58123	2.3	0
854	58123	2.4	0
854	58123	2.5	0
854	58123	2.6	0
854	58123	2.7	0
854	58123	2.8	0
854	58123	2.9	0
854	58123	3	0
854	58123	3.1	0
854	58123	3.2	0
854	58123	3.3	0
854	58123	3.4	0
854	58123	3.5	0
854	58123	3.6	0
854	58123	3.7	0
854	58123	3.8	0
854	58123	3.9	0
854	58123	4	0
854	58123	4.1	0
854	58123	4.2	0
854	58123	4.3	0
854	58123	4.4	0
854	58123	4.5	0
854	58123	4.6	0
854	58123	4.7	0
854	58123	4.8	0
854	58123	4.9	0
854	58123	5	0
854	58123	5.1	0
854	58123	5.2	0
854	58123	5.3	0
854	58123	5.4	0
854	58123	5.5	0
854	58123	5.6	0
854	58123	5.7	0
854	58123	5.8	0
854	58123	5.9	0
854	58123	6	0
854	58123	6.1	0
854	58123	6.2	0
854	58123	6.3	0
854	58123	6.4	0
854	58123	6.5	0
854	58123	6.6	0
854	58123	6.7	0
854	58123	6.8	0
854	58123	6.9	0
854	58123	7	0
854	58123	7.1	0
854	58123	7.2	0
854	58123	7.3	0
854	58123	7.4	0
854	58123	7.5	0
854	58123	7.6	0
854	58123	7.661439058438	0
855	58123	0.1	0
855	58123	0.2	0
855	58123	0.3	0
855	58123	0.4	0
855	58123	0.5	0
855	58123	0.6	0
855	58123	0.7	0
855	58123	0.8	0
855	58123	0.9	0
855	58123	1	0
855	58123	1.1	0
855	58123	1.2	0
855	58123	1.3	0
855	58123	1.4	0
855	58123	1.5	0
855	58123	1.6	0
855	58123	1.7	0
855	58123	1.8	0
855	58123	1.9	0
855	58123	2	0
855	58123	2.1	0
855	58123	2.2	0
855	58123	2.3	0
855	58123	2.4	0
855	58123	2.5	0
855	58123	2.6	0
855	58123	2.7	0
855	58123	2.8	0
855	58123	2.9	0
855	58123	3	0
855	58123	3.1	0
855	58123	3.2	0
855	58123	3.3	0
855	58123	3.4	0
855	58123	3.5	0
855	58123	3.6	0
855	58123	3.7	0
855	58123	3.8	0
855	58123	3.9	0
855	58123	4	0
855	58123	4.1	0
855	58123	4.2	0
855	58123	4.3	0
855	58123	4.4	0
855	58123	4.5	0
855	58123	4.6	0
855	58123	4.7	0
855	58123	4.8	0
855	58123	4.9	0
855	58123	5	0
855	58123	5.1	0
855	58123	5.2	0
855	58123	5.3	0
855	58123	5.4	0
855	58123	5.5	0
855	58123	5.6	0
855	58123	5.7	0
855	58123	5.8	0
855	58123	5.9	0
855	58123	6	0
855	58123	6.1	0
855	58123	6.2	0
855	58123	6.3	0
855	58123	6.4	0
855	58123	6.5	0
855	58123	6.6	0
855	58123	6.7	0
855	58123	6.8	0
855	58123	6.9	0
855	58123	7	0
855	58123	7.1	0
855	58123	7.2	0
855	58123	7.3	0
855	58123	7.4	0
855	58123	7.5	0
855	58123	7.6	0
855	58123	7.661439058438	0
856	58123	0.1	0
856	58123	0.2	0
856	58123	0.3	0
856	58123	0.4	0
856	58123	0.5	0
856	58123	0.6	0
856	58123	0.7	0
856	58123	0.8	0
856	58123	0.9	0
856	58123	1	0
856	58123	1.1	0
856	58123	1.2	0
856	58123	1.3	0
856	58123	1.4	0
856	58123	1.5	0
856	58123	1.6	0
856	58123	1.7	0
856	58123	1.8	0
856	58123	1.9	0
856	58123	2	0
856	58123	2.1	0
856	58123	2.2	0
856	58123	2.3	0
856	58123	2.4	0
856	58123	2.5	0
856	58123	2.6	0
856	58123	2.7	0
856	58123	2.8	0
856	58123	2.9	0
856	58123	3	0
856	58123	3.1	0
856	58123	3.2	0
856	58123	3.3	0
856	58123	3.4	0
856	58123	3.5	0
856	58123	3.6	0
856	58123	3.7	0
856	58123	3.8	0
856	58123	3.9	0
856	58123	4	0
856	58123	4.1	0
856	58123	4.2	0
856	58123	4.3	0
856	58123	4.4	0
856	58123	4.5	0
856	58123	4.6	0
856	58123	4.7	0
856	58123	4.8	0
856	58123	4.9	0
856	58123	5	0
856	58123	5.1	0
856	58123	5.2	0
856	58123	5.3	0
856	58123	5.4	0
856	58123	5.5	0
856	58123	5.6	0
856	58123	5.7	0
856	58123	5.8	0
856	58123	5.9	0
856	58123	6	0
856	58123	6.1	0
856	58123	6.2	0
856	58123	6.3	0
856	58123	6.4	0
856	58123	6.5	0
856	58123	6.6	0
856	58123	6.7	0
856	58123	6.8	0
856	58123	6.9	0
856	58123	7	0
856	58123	7.1	0
856	58123	7.2	0
856	58123	7.3	0
856	58123	7.4	0
856	58123	7.5	0
856	58123	7.6	0
856	58123	7.661439058438	0
857	58123	0.1	0
857	58123	0.2	0
857	58123	0.3	0
857	58123	0.4	0
857	58123	0.5	0
857	58123	0.6	0
857	58123	0.7	0
857	58123	0.8	0
857	58123	0.9	0
857	58123	1	0
857	58123	1.1	0
857	58123	1.2	0
857	58123	1.3	0
857	58123	1.4	0
857	58123	1.5	0
857	58123	1.6	0
857	58123	1.7	0
857	58123	1.8	0
857	58123	1.9	0
857	58123	2	0
857	58123	2.1	0
857	58123	2.2	0
857	58123	2.3	0
857	58123	2.4	0
857	58123	2.5	0
857	58123	2.6	0
857	58123	2.7	0
857	58123	2.8	0
857	58123	2.9	0
857	58123	3	0
857	58123	3.1	0
857	58123	3.2	0
857	58123	3.3	0
857	58123	3.4	0
857	58123	3.5	0
857	58123	3.6	0
857	58123	3.7	0
857	58123	3.8	0
857	58123	3.9	0
857	58123	4	0
857	58123	4.1	0
857	58123	4.2	0
857	58123	4.3	0
857	58123	4.4	0
857	58123	4.5	0
857	58123	4.6	0
857	58123	4.7	0
857	58123	4.8	0
857	58123	4.9	0
857	58123	5	0
857	58123	5.1	0
857	58123	5.2	0
857	58123	5.3	0
857	58123	5.4	0
857	58123	5.5	0
857	58123	5.6	0
857	58123	5.7	0
857	58123	5.8	0
857	58123	5.9	0
857	58123	6	0
857	58123	6.1	0
857	58123	6.2	0
857	58123	6.3	0
857	58123	6.4	0
857	58123	6.5	0
857	58123	6.6	0
857	58123	6.7	0
857	58123	6.8	0
857	58123	6.9	0
857	58123	7	0
857	58123	7.1	0
857	58123	7.2	0
857	58123	7.3	0
857	58123	7.4	0
857	58123	7.5	0
857	58123	7.6	0
857	58123	7.661439058438	0
858	58123	0.1	0
858	58123	0.2	0
858	58123	0.3	0
858	58123	0.4	0
858	58123	0.5	0
858	58123	0.6	0
858	58123	0.7	0
858	58123	0.8	0
858	58123	0.9	0
858	58123	1	0
858	58123	1.1	0
858	58123	1.2	0
858	58123	1.3	0
858	58123	1.4	0
858	58123	1.5	0
858	58123	1.6	0
858	58123	1.7	0
858	58123	1.8	0
858	58123	1.9	0
858	58123	2	0
858	58123	2.1	0
858	58123	2.2	0
858	58123	2.3	0
858	58123	2.4	0
858	58123	2.5	0
858	58123	2.6	0
858	58123	2.7	0
858	58123	2.8	0
858	58123	2.9	0
858	58123	3	0
858	58123	3.1	0
858	58123	3.2	0
858	58123	3.3	0
858	58123	3.4	0
858	58123	3.5	0
858	58123	3.6	0
858	58123	3.7	0
858	58123	3.8	0
858	58123	3.9	0
858	58123	4	0
858	58123	4.1	0
858	58123	4.2	0
858	58123	4.3	0
858	58123	4.4	0
858	58123	4.5	0
858	58123	4.6	0
858	58123	4.7	0
858	58123	4.8	0
858	58123	4.9	0
858	58123	5	0
858	58123	5.1	0
858	58123	5.2	0
858	58123	5.3	0
858	58123	5.4	0
858	58123	5.5	0
858	58123	5.6	0
858	58123	5.7	0
858	58123	5.8	0
858	58123	5.9	0
858	58123	6	0
858	58123	6.1	0
858	58123	6.2	0
858	58123	6.3	0
858	58123	6.4	0
858	58123	6.5	0
858	58123	6.6	0
858	58123	6.7	0
858	58123	6.8	0
858	58123	6.9	0
858	58123	7	0
858	58123	7.1	0
858	58123	7.2	0
858	58123	7.3	0
858	58123	7.4	0
858	58123	7.5	0
858	58123	7.6	0
858	58123	7.661439058438	0
859	58123	0.1	0
859	58123	0.2	0
859	58123	0.3	0
859	58123	0.4	0
859	58123	0.5	0
859	58123	0.6	0
859	58123	0.7	0
859	58123	0.8	0
859	58123	0.9	0
859	58123	1	0
859	58123	1.1	0
859	58123	1.2	0
859	58123	1.3	0
859	58123	1.4	0
859	58123	1.5	0
859	58123	1.6	0
859	58123	1.7	0
859	58123	1.8	0
859	58123	1.9	0
859	58123	2	0
859	58123	2.1	0
859	58123	2.2	0
859	58123	2.3	0
859	58123	2.4	0
859	58123	2.5	0
859	58123	2.6	0
859	58123	2.7	0
859	58123	2.8	0
859	58123	2.9	0
859	58123	3	0
859	58123	3.1	0
859	58123	3.2	0
859	58123	3.3	0
859	58123	3.4	0
859	58123	3.5	0
859	58123	3.6	0
859	58123	3.7	0
859	58123	3.8	0
859	58123	3.9	0
859	58123	4	0
859	58123	4.1	0
859	58123	4.2	0
859	58123	4.3	0
859	58123	4.4	0
859	58123	4.5	0
859	58123	4.6	0
859	58123	4.7	0
859	58123	4.8	0
859	58123	4.9	0
859	58123	5	0
859	58123	5.1	0
859	58123	5.2	0
859	58123	5.3	0
859	58123	5.4	0
859	58123	5.5	0
859	58123	5.6	0
859	58123	5.7	0
859	58123	5.8	0
859	58123	5.9	0
859	58123	6	0
859	58123	6.1	0
859	58123	6.2	0
859	58123	6.3	0
859	58123	6.4	0
859	58123	6.5	0
859	58123	6.6	0
859	58123	6.7	0
859	58123	6.8	0
859	58123	6.9	0
859	58123	7	0
859	58123	7.1	0
859	58123	7.2	0
859	58123	7.3	0
859	58123	7.4	0
859	58123	7.5	0
859	58123	7.6	0
859	58123	7.661439058438	0
860	58123	0.1	0
860	58123	0.2	0
860	58123	0.3	0
860	58123	0.4	0
860	58123	0.5	0
860	58123	0.6	0
860	58123	0.7	0
860	58123	0.8	0
860	58123	0.9	0
860	58123	1	0
860	58123	1.1	0
860	58123	1.2	0
860	58123	1.3	0
860	58123	1.4	0
860	58123	1.5	0
860	58123	1.6	0
860	58123	1.7	0
860	58123	1.8	0
860	58123	1.9	0
860	58123	2	0
860	58123	2.1	0
860	58123	2.2	0
860	58123	2.3	0
860	58123	2.4	0
860	58123	2.5	0
860	58123	2.6	0
860	58123	2.7	0
860	58123	2.8	0
860	58123	2.9	0
860	58123	3	0
860	58123	3.1	0
860	58123	3.2	0
860	58123	3.3	0
860	58123	3.4	0
860	58123	3.5	0
860	58123	3.6	0
860	58123	3.7	0
860	58123	3.8	0
860	58123	3.9	0
860	58123	4	0
860	58123	4.1	0
860	58123	4.2	0
860	58123	4.3	0
860	58123	4.4	0
860	58123	4.5	0
860	58123	4.6	0
860	58123	4.7	0
860	58123	4.8	0
860	58123	4.9	0
860	58123	5	0
860	58123	5.1	0
860	58123	5.2	0
860	58123	5.3	0
860	58123	5.4	0
860	58123	5.5	0
860	58123	5.6	0
860	58123	5.7	0
860	58123	5.8	0
860	58123	5.9	0
860	58123	6	0
860	58123	6.1	0
860	58123	6.2	0
860	58123	6.3	0
860	58123	6.4	0
860	58123	6.5	0
860	58123	6.6	0
860	58123	6.7	0
860	58123	6.8	0
860	58123	6.9	0
860	58123	7	0
860	58123	7.1	0
860	58123	7.2	0
860	58123	7.3	0
860	58123	7.4	0
860	58123	7.5	0
860	58123	7.6	0
860	58123	7.661439058438	0
861	58123	0.1	0
861	58123	0.2	0
861	58123	0.3	0
861	58123	0.4	0
861	58123	0.5	0
861	58123	0.6	0
861	58123	0.7	0
861	58123	0.8	0
861	58123	0.9	0
861	58123	1	0
861	58123	1.1	0
861	58123	1.2	0
861	58123	1.3	0
861	58123	1.4	0
861	58123	1.5	0
861	58123	1.6	0
861	58123	1.7	0
861	58123	1.8	0
861	58123	1.9	0
861	58123	2	0
861	58123	2.1	0
861	58123	2.2	0
861	58123	2.3	0
861	58123	2.4	0
861	58123	2.5	0
861	58123	2.6	0
861	58123	2.7	0
861	58123	2.8	0
861	58123	2.9	0
861	58123	3	0
861	58123	3.1	0
861	58123	3.2	0
861	58123	3.3	0
861	58123	3.4	0
861	58123	3.5	0
861	58123	3.6	0
861	58123	3.7	0
861	58123	3.8	0
861	58123	3.9	0
861	58123	4	0
861	58123	4.1	0
861	58123	4.2	0
861	58123	4.3	0
861	58123	4.4	0
861	58123	4.5	0
861	58123	4.6	0
861	58123	4.7	0
861	58123	4.8	0
861	58123	4.9	0
861	58123	5	0
861	58123	5.1	0
861	58123	5.2	0
861	58123	5.3	0
861	58123	5.4	0
861	58123	5.5	0
861	58123	5.6	0
861	58123	5.7	0
861	58123	5.8	0
861	58123	5.9	0
861	58123	6	0
861	58123	6.1	0
861	58123	6.2	0
861	58123	6.3	0
861	58123	6.4	0
861	58123	6.5	0
861	58123	6.6	0
861	58123	6.7	0
861	58123	6.8	0
861	58123	6.9	0
861	58123	7	0
861	58123	7.1	0
861	58123	7.2	0
861	58123	7.3	0
861	58123	7.4	0
861	58123	7.5	0
861	58123	7.6	0
861	58123	7.661439058438	0
862	58123	0.1	0
862	58123	0.2	0
862	58123	0.3	0
862	58123	0.4	0
862	58123	0.5	0
862	58123	0.6	0
862	58123	0.7	0
862	58123	0.8	0
862	58123	0.9	0
862	58123	1	0
862	58123	1.1	0
862	58123	1.2	0
862	58123	1.3	0
862	58123	1.4	0
862	58123	1.5	0
862	58123	1.6	0
862	58123	1.7	0
862	58123	1.8	0
862	58123	1.9	0
862	58123	2	0
862	58123	2.1	0
862	58123	2.2	0
862	58123	2.3	0
862	58123	2.4	0
862	58123	2.5	0
862	58123	2.6	0
862	58123	2.7	0
862	58123	2.8	0
862	58123	2.9	0
862	58123	3	0
862	58123	3.1	0
862	58123	3.2	0
862	58123	3.3	0
862	58123	3.4	0
862	58123	3.5	0
862	58123	3.6	0
862	58123	3.7	0
862	58123	3.8	0
862	58123	3.9	0
862	58123	4	0
862	58123	4.1	0
862	58123	4.2	0
862	58123	4.3	0
862	58123	4.4	0
862	58123	4.5	0
862	58123	4.6	0
862	58123	4.7	0
862	58123	4.8	0
862	58123	4.9	0
862	58123	5	0
862	58123	5.1	0
862	58123	5.2	0
862	58123	5.3	0
862	58123	5.4	0
862	58123	5.5	0
862	58123	5.6	0
862	58123	5.7	0
862	58123	5.8	0
862	58123	5.9	0
862	58123	6	0
862	58123	6.1	0
862	58123	6.2	0
862	58123	6.3	0
862	58123	6.4	0
862	58123	6.5	0
862	58123	6.6	0
862	58123	6.7	0
862	58123	6.8	0
862	58123	6.9	0
862	58123	7	0
862	58123	7.1	0
862	58123	7.2	0
862	58123	7.3	0
862	58123	7.4	0
862	58123	7.5	0
862	58123	7.6	0
862	58123	7.661439058438	0
863	58123	0.1	0
863	58123	0.2	0
863	58123	0.3	0
863	58123	0.4	0
863	58123	0.5	0
863	58123	0.6	0
863	58123	0.7	0
863	58123	0.8	0
863	58123	0.9	0
863	58123	1	0
863	58123	1.1	0
863	58123	1.2	0
863	58123	1.3	0
863	58123	1.4	0
863	58123	1.5	0
863	58123	1.6	0
863	58123	1.7	0
863	58123	1.8	0
863	58123	1.9	0
863	58123	2	0
863	58123	2.1	0
863	58123	2.2	0
863	58123	2.3	0
863	58123	2.4	0
863	58123	2.5	0
863	58123	2.6	0
863	58123	2.7	0
863	58123	2.8	0
863	58123	2.9	0
863	58123	3	0
863	58123	3.1	0
863	58123	3.2	0
863	58123	3.3	0
863	58123	3.4	0
863	58123	3.5	0
863	58123	3.6	0
863	58123	3.7	0
863	58123	3.8	0
863	58123	3.9	0
863	58123	4	0
863	58123	4.1	0
863	58123	4.2	0
863	58123	4.3	0
863	58123	4.4	0
863	58123	4.5	0
863	58123	4.6	0
863	58123	4.7	0
863	58123	4.8	0
863	58123	4.9	0
863	58123	5	0
863	58123	5.1	0
863	58123	5.2	0
863	58123	5.3	0
863	58123	5.4	0
863	58123	5.5	0
863	58123	5.6	0
863	58123	5.7	0
863	58123	5.8	0
863	58123	5.9	0
863	58123	6	0
863	58123	6.1	0
863	58123	6.2	0
863	58123	6.3	0
863	58123	6.4	0
863	58123	6.5	0
863	58123	6.6	0
863	58123	6.7	0
863	58123	6.8	0
863	58123	6.9	0
863	58123	7	0
863	58123	7.1	0
863	58123	7.2	0
863	58123	7.3	0
863	58123	7.4	0
863	58123	7.5	0
863	58123	7.6	0
863	58123	7.661439058438	0
864	58123	0.1	0
864	58123	0.2	0
864	58123	0.3	0
864	58123	0.4	0
864	58123	0.5	0
864	58123	0.6	0
864	58123	0.7	0
864	58123	0.8	0
864	58123	0.9	0
864	58123	1	0
864	58123	1.1	0
864	58123	1.2	0
864	58123	1.3	0
864	58123	1.4	0
864	58123	1.5	0
864	58123	1.6	0
864	58123	1.7	0
864	58123	1.8	0
864	58123	1.9	0
864	58123	2	0
864	58123	2.1	0
864	58123	2.2	0
864	58123	2.3	0
864	58123	2.4	0
864	58123	2.5	0
864	58123	2.6	0
864	58123	2.7	0
864	58123	2.8	0
864	58123	2.9	0
864	58123	3	0
864	58123	3.1	0
864	58123	3.2	0
864	58123	3.3	0
864	58123	3.4	0
864	58123	3.5	0
864	58123	3.6	0
864	58123	3.7	0
864	58123	3.8	0
864	58123	3.9	0
864	58123	4	0
864	58123	4.1	0
864	58123	4.2	0
864	58123	4.3	0
864	58123	4.4	0
864	58123	4.5	0
864	58123	4.6	0
864	58123	4.7	0
864	58123	4.8	0
864	58123	4.9	0
864	58123	5	0
864	58123	5.1	0
864	58123	5.2	0
864	58123	5.3	0
864	58123	5.4	0
864	58123	5.5	0
864	58123	5.6	0
864	58123	5.7	0
864	58123	5.8	0
864	58123	5.9	0
864	58123	6	0
864	58123	6.1	0
864	58123	6.2	0
864	58123	6.3	0
864	58123	6.4	0
864	58123	6.5	0
864	58123	6.6	0
864	58123	6.7	0
864	58123	6.8	0
864	58123	6.9	0
864	58123	7	0
864	58123	7.1	0
864	58123	7.2	0
864	58123	7.3	0
864	58123	7.4	0
864	58123	7.5	0
864	58123	7.6	0
864	58123	7.661439058438	0
865	58123	0.1	0
865	58123	0.2	0
865	58123	0.3	0
865	58123	0.4	0
865	58123	0.5	0
865	58123	0.6	0
865	58123	0.7	0
865	58123	0.8	0
865	58123	0.9	0
865	58123	1	0
865	58123	1.1	0
865	58123	1.2	0
865	58123	1.3	0
865	58123	1.4	0
865	58123	1.5	0
865	58123	1.6	0
865	58123	1.7	0
865	58123	1.8	0
865	58123	1.9	0
865	58123	2	0
865	58123	2.1	0
865	58123	2.2	0
865	58123	2.3	0
865	58123	2.4	0
865	58123	2.5	0
865	58123	2.6	0
865	58123	2.7	0
865	58123	2.8	0
865	58123	2.9	0
865	58123	3	0
865	58123	3.1	0
865	58123	3.2	0
865	58123	3.3	0
865	58123	3.4	0
865	58123	3.5	0
865	58123	3.6	0
865	58123	3.7	0
865	58123	3.8	0
865	58123	3.9	0
865	58123	4	0
865	58123	4.1	0
865	58123	4.2	0
865	58123	4.3	0
865	58123	4.4	0
865	58123	4.5	0
865	58123	4.6	0
865	58123	4.7	0
865	58123	4.8	0
865	58123	4.9	0
865	58123	5	0
865	58123	5.1	0
865	58123	5.2	0
865	58123	5.3	0
865	58123	5.4	0
865	58123	5.5	0
865	58123	5.6	0
865	58123	5.7	0
865	58123	5.8	0
865	58123	5.9	0
865	58123	6	0
865	58123	6.1	0
865	58123	6.2	0
865	58123	6.3	0
865	58123	6.4	0
865	58123	6.5	0
865	58123	6.6	0
865	58123	6.7	0
865	58123	6.8	0
865	58123	6.9	0
865	58123	7	0
865	58123	7.1	0
865	58123	7.2	0
865	58123	7.3	0
865	58123	7.4	0
865	58123	7.5	0
865	58123	7.6	0
865	58123	7.661439058438	0
866	58123	0.1	0
866	58123	0.2	0
866	58123	0.3	0
866	58123	0.4	0
866	58123	0.5	0
866	58123	0.6	0
866	58123	0.7	0
866	58123	0.8	0
866	58123	0.9	0
866	58123	1	0
866	58123	1.1	0
866	58123	1.2	0
866	58123	1.3	0
866	58123	1.4	0
866	58123	1.5	0
866	58123	1.6	0
866	58123	1.7	0
866	58123	1.8	0
866	58123	1.9	0
866	58123	2	0
866	58123	2.1	0
866	58123	2.2	0
866	58123	2.3	0
866	58123	2.4	0
866	58123	2.5	0
866	58123	2.6	0
866	58123	2.7	0
866	58123	2.8	0
866	58123	2.9	0
866	58123	3	0
866	58123	3.1	0
866	58123	3.2	0
866	58123	3.3	0
866	58123	3.4	0
866	58123	3.5	0
866	58123	3.6	0
866	58123	3.7	0
866	58123	3.8	0
866	58123	3.9	0
866	58123	4	0
866	58123	4.1	0
866	58123	4.2	0
866	58123	4.3	0
866	58123	4.4	0
866	58123	4.5	0
866	58123	4.6	0
866	58123	4.7	0
866	58123	4.8	0
866	58123	4.9	0
866	58123	5	0
866	58123	5.1	0
866	58123	5.2	0
866	58123	5.3	0
866	58123	5.4	0
866	58123	5.5	0
866	58123	5.6	0
866	58123	5.7	0
866	58123	5.8	0
866	58123	5.9	0
866	58123	6	0
866	58123	6.1	0
866	58123	6.2	0
866	58123	6.3	0
866	58123	6.4	0
866	58123	6.5	0
866	58123	6.6	0
866	58123	6.7	0
866	58123	6.8	0
866	58123	6.9	0
866	58123	7	0
866	58123	7.1	0
866	58123	7.2	0
866	58123	7.3	0
866	58123	7.4	0
866	58123	7.5	0
866	58123	7.6	0
866	58123	7.661439058438	0
867	58123	0.1	0
867	58123	0.2	0
867	58123	0.3	0
867	58123	0.4	0
867	58123	0.5	0
867	58123	0.6	0
867	58123	0.7	0
867	58123	0.8	0
867	58123	0.9	0
867	58123	1	0
867	58123	1.1	0
867	58123	1.2	0
867	58123	1.3	0
867	58123	1.4	0
867	58123	1.5	0
867	58123	1.6	0
867	58123	1.7	0
867	58123	1.8	0
867	58123	1.9	0
867	58123	2	0
867	58123	2.1	0
867	58123	2.2	0
867	58123	2.3	0
867	58123	2.4	0
867	58123	2.5	0
867	58123	2.6	0
867	58123	2.7	0
867	58123	2.8	0
867	58123	2.9	0
867	58123	3	0
867	58123	3.1	0
867	58123	3.2	0
867	58123	3.3	0
867	58123	3.4	0
867	58123	3.5	0
867	58123	3.6	0
867	58123	3.7	0
867	58123	3.8	0
867	58123	3.9	0
867	58123	4	0
867	58123	4.1	0
867	58123	4.2	0
867	58123	4.3	0
867	58123	4.4	0
867	58123	4.5	0
867	58123	4.6	0
867	58123	4.7	0
867	58123	4.8	0
867	58123	4.9	0
867	58123	5	0
867	58123	5.1	0
867	58123	5.2	0
867	58123	5.3	0
867	58123	5.4	0
867	58123	5.5	0
867	58123	5.6	0
867	58123	5.7	0
867	58123	5.8	0
867	58123	5.9	0
867	58123	6	0
867	58123	6.1	0
867	58123	6.2	0
867	58123	6.3	0
867	58123	6.4	0
867	58123	6.5	0
867	58123	6.6	0
867	58123	6.7	0
867	58123	6.8	0
867	58123	6.9	0
867	58123	7	0
867	58123	7.1	0
867	58123	7.2	0
867	58123	7.3	0
867	58123	7.4	0
867	58123	7.5	0
867	58123	7.6	0
867	58123	7.661439058438	0

