version 2
run canvas-0-20220714-16:55:40-2844
attr configname canvas
attr datetime 20220714-16:55:40
attr experiment canvas
attr inifile omnetpp.ini
attr iterationvars ""
attr iterationvarsf ""
attr measurement ""
attr network RoutingScenario
attr processid 2844
attr repetition 0
attr replication #0
attr resultdir results
attr runnumber 0
attr seedset 0
param *.visualizer.*.obstacleLossVisualizer.displayIntersections true
param *.visualizer.*.obstacleLossVisualizer.displayFaceNormalVectors true
param *.visualizer.*.obstacleLossVisualizer.intersectionLineColor "\"yellow\""
param *.visualizer.*.mediumVisualizer.signalPropagationAnimationSpeed 500/3e8
param *.visualizer.*.mediumVisualizer.signalTransmissionAnimationSpeed 50000/3e8
param *.visualizer.*.mediumVisualizer.displaySignals true
param *.visualizer.canvasVisualizer.mediumVisualizer.displaySignalDepartures false
param *.visualizer.canvasVisualizer.mediumVisualizer.displaySignalArrivals false
param *.visualizer.*.physicalLinkVisualizer.displayLinks true
param *.visualizer.*.mobilityVisualizer.displayPositions true
param *.visualizer.*.mobilityVisualizer.displayOrientations true
param *.visualizer.*.mobilityVisualizer.displayVelocities true
param *.visualizer.*.mobilityVisualizer.displayMovementTrails true
param *.visualizer.*.mobilityVisualizer.moduleFilter "\"**.antenna.mobility\""
param *.node[5].router "\"BlackHoleRSA\""
param *.node[7].router "\"BlackHoleRSA\""
param *.node[*].router "\"SecureAodv\""
param *.node[*].numApps 1
param *.node[*].app[0].typename "\"UdpBasicApp\""
param *.node[*].app[0].destAddresses "\"node[*]\""
param *.node[*].app[0].destPort 5000
param *.node[*].app[0].messageLength 1000B
param *.node[*].app[0].sendInterval exponential(12ms)
param *.node[*].app[0].packetName "\"UDPData\""
param *.node[*].wlan[0].opMode "\"p\""
param *.node[*].wlan[0].radio.bandName "\"5.9 GHz\""
param *.node[*].wlan[0].radio.channelNumber 3
param *.node[*].wlan[0].radio.transmitter.power 20mW
param *.node[*].wlan[0].radio.bandwidth "10 MHz"
param *.node[*].ipv4.configurator.typename "\"HostAutoConfigurator\""
param *.node[*].ipv4.configurator.interfaces "\"wlan0\""
param *.node[*].ipv4.configurator.mcastGroups "\"224.0.0.1\""
param *.node[*].mobility.typename "\"VeinsInetMobility\""
param *.node[*].mobility.speed 20mps
param *.manager.updateInterval 0.1s
param *.manager.host "\"localhost\""
param *.manager.port 9999
param *.manager.autoShutdown true
param *.manager.launchConfig "xmldoc(\"bari.launchd.xml\")"
param *.manager.moduleType "\"vanetnetsec.veins_inet.VeinsInetRoutingCar\""
param *.physicalEnvironment.config "xmldoc(\"obstacles.xml\")"
param *.radioMedium.obstacleLoss.typename "\"IdealObstacleLoss\""

scalar RoutingScenario.radioMedium.propagation "Arrival computation count" 10669
scalar RoutingScenario.radioMedium "transmission count" 466
scalar RoutingScenario.radioMedium "signal send count" 10669
scalar RoutingScenario.radioMedium "reception computation count" 10662
scalar RoutingScenario.radioMedium "interference computation count" 31990
scalar RoutingScenario.radioMedium "reception decision computation count" 2068
scalar RoutingScenario.radioMedium "listening decision computation count" 19304
scalar RoutingScenario.radioMedium "reception cache hit" 79.165608207132
attr unit %
scalar RoutingScenario.radioMedium "interference cache hit" 66.666666666667
attr unit %
scalar RoutingScenario.radioMedium "noise cache hit" 0
attr unit %
scalar RoutingScenario.radioMedium "snir cache hit" 50
attr unit %
scalar RoutingScenario.radioMedium "reception decision cache hit" 50
attr unit %
scalar RoutingScenario.radioMedium "reception result cache hit" 0
attr unit %
scalar RoutingScenario.manager roiArea 0
scalar RoutingScenario.node[0].lo[0].lo rcvdPkFromHl:count 1403
attr interpolationmode none
attr source packetReceivedFromUpper
attr title "packets received from higher layer, count"
scalar RoutingScenario.node[0].lo[0].lo rcvdPkFromHl:sum(packetBytes) 1442284
attr interpolationmode none
attr source packetReceivedFromUpper
attr title "packets received from higher layer, sum(packetBytes)"
scalar RoutingScenario.node[0].lo[0].lo passedUpPk:count 1403
attr interpolationmode none
attr source packetSentToUpper
attr title "packets passed to higher layer, count"
scalar RoutingScenario.node[0].lo[0].lo passedUpPk:sum(packetBytes) 1442284
attr interpolationmode none
attr source packetSentToUpper
attr title "packets passed to higher layer, sum(packetBytes)"
scalar RoutingScenario.node[0].wlan[0].mac.dcf.channelAccess.pendingQueue packetPopped:count 10
attr interpolationmode none
attr title "packet popped, count"
scalar RoutingScenario.node[0].wlan[0].mac.dcf.channelAccess.pendingQueue packetPopped:sum(packetBytes) 680
attr interpolationmode none
attr title "packet popped, sum(packetBytes)"
statistic RoutingScenario.node[0].wlan[0].mac.dcf.channelAccess.pendingQueue queueingTime:histogram
field count 10
field mean 0.0001495
field stddev 0.00010086542189142
field min 0
field max 0.000315
field sum 0.001495
field sqrsum 3.15067e-07
attr interpolationmode none
attr source queueingTime(packetPopped)
attr title "queueing times, histogram"
attr unit s
bin	-inf	0
bin	0	2
bin	5e-06	0
bin	1e-05	0
bin	1.5e-05	0
bin	2e-05	0
bin	2.5e-05	0
bin	3e-05	0
bin	3.5e-05	0
bin	4e-05	0
bin	4.5e-05	0
bin	5e-05	0
bin	5.5e-05	0
bin	6e-05	0
bin	6.5e-05	0
bin	7e-05	0
bin	7.5e-05	0
bin	8e-05	0
bin	8.5e-05	0
bin	9e-05	0
bin	9.5e-05	0
bin	0.0001	0
bin	0.000105	2
bin	0.00011	0
bin	0.000115	0
bin	0.00012	0
bin	0.000125	0
bin	0.00013	0
bin	0.000135	0
bin	0.00014	0
bin	0.000145	0
bin	0.00015	0
bin	0.000155	0
bin	0.00016	2
bin	0.000165	0
bin	0.00017	1
bin	0.000175	0
bin	0.00018	0
bin	0.000185	0
bin	0.00019	0
bin	0.000195	0
bin	0.0002	1
bin	0.000205	0
bin	0.00021	0
bin	0.000215	0
bin	0.00022	0
bin	0.000225	0
bin	0.00023	0
bin	0.000235	0
bin	0.00024	0
bin	0.000245	0
bin	0.00025	0
bin	0.000255	0
bin	0.00026	1
bin	0.000265	0
bin	0.00027	0
bin	0.000275	0
bin	0.00028	0
bin	0.000285	0
bin	0.00029	0
bin	0.000295	0
bin	0.0003	0
bin	0.000305	0
bin	0.00031	1
bin	0.000315	0
bin	0.00032	0
bin	0.000325	0
bin	0.00033	0
bin	0.000335	0
bin	0.00034	0
bin	0.000345	0
bin	0.00035	0
bin	0.000355	0
bin	0.00036	0
bin	0.000365	0
bin	0.00037	0
bin	0.000375	0
bin	0.00038	0
bin	0.000385	0
bin	0.00039	0
bin	0.000395	0
scalar RoutingScenario.node[0].wlan[0].mac.dcf.channelAccess.pendingQueue queueLength:max 1
attr interpolationmode sample-hold
attr source "count(packetPushed) - count(packetPopped) - count(packetRemoved) - count(packetDropped)"
attr title "queue length, max"
scalar RoutingScenario.node[0].wlan[0].mac.dcf.channelAccess.pendingQueue queueLength:timeavg 8.4473735550322e-05
attr interpolationmode sample-hold
attr source "count(packetPushed) - count(packetPopped) - count(packetRemoved) - count(packetDropped)"
attr title "queue length, timeavg"
scalar RoutingScenario.node[0].wlan[0].mac.dcf.channelAccess.pendingQueue packetPushed:count 10
attr interpolationmode none
attr title "packet pushed, count"
scalar RoutingScenario.node[0].wlan[0].mac.dcf.channelAccess.pendingQueue packetPushed:sum(packetBytes) 680
attr interpolationmode none
attr title "packet pushed, sum(packetBytes)"
scalar RoutingScenario.node[0].wlan[0].mac.dcf.channelAccess.pendingQueue packetDropQueueOverflow:count 0
attr interpolationmode none
attr source packetDropReasonIsQueueOverflow(packetDropped)
attr title "packet drops: queue overflow, count"
scalar RoutingScenario.node[0].wlan[0].mac.dcf.channelAccess.pendingQueue packetDropQueueOverflow:sum(packetBytes) 0
attr interpolationmode none
attr source packetDropReasonIsQueueOverflow(packetDropped)
attr title "packet drops: queue overflow, sum(packetBytes)"
scalar RoutingScenario.node[0].wlan[0].mac.dcf.channelAccess.pendingQueue packetRemoved:count 0
attr interpolationmode none
attr title "packets removed, count"
scalar RoutingScenario.node[0].wlan[0].mac.dcf.channelAccess.pendingQueue packetRemoved:sum(packetBytes) 0
attr interpolationmode none
attr title "packets removed, sum(packetBytes)"
statistic RoutingScenario.node[0].wlan[0].mac.dcf.channelAccess.inProgressFrames queueingTime:histogram
field count 10
field mean 0.0001365580568
field stddev 5.1188265402206e-05
field min 8.8e-05
field max 0.000186118606
field sum 0.001365580568
field sqrsum 2.100631754039e-07
attr interpolationmode none
attr source queueingTime(packetDequeued)
attr title "queueing times, histogram"
bin	-inf	0
bin	6.2e-05	0
bin	6.4e-05	0
bin	6.6e-05	0
bin	6.8e-05	0
bin	7e-05	0
bin	7.2e-05	0
bin	7.4e-05	0
bin	7.6e-05	0
bin	7.8e-05	0
bin	8e-05	0
bin	8.2e-05	0
bin	8.4e-05	0
bin	8.6e-05	5
bin	8.8e-05	0
bin	9e-05	0
bin	9.2e-05	0
bin	9.4e-05	0
bin	9.6e-05	0
bin	9.8e-05	0
bin	0.0001	0
bin	0.000102	0
bin	0.000104	0
bin	0.000106	0
bin	0.000108	0
bin	0.00011	0
bin	0.000112	0
bin	0.000114	0
bin	0.000116	0
bin	0.000118	0
bin	0.00012	0
bin	0.000122	0
bin	0.000124	0
bin	0.000126	0
bin	0.000128	0
bin	0.00013	0
bin	0.000132	0
bin	0.000134	0
bin	0.000136	0
bin	0.000138	0
bin	0.00014	0
bin	0.000142	0
bin	0.000144	0
bin	0.000146	0
bin	0.000148	0
bin	0.00015	0
bin	0.000152	0
bin	0.000154	0
bin	0.000156	0
bin	0.000158	0
bin	0.00016	0
bin	0.000162	0
bin	0.000164	0
bin	0.000166	0
bin	0.000168	0
bin	0.00017	0
bin	0.000172	0
bin	0.000174	0
bin	0.000176	0
bin	0.000178	0
bin	0.00018	0
bin	0.000182	0
bin	0.000184	3
bin	0.000186	2
bin	0.000188	0
bin	0.00019	0
bin	0.000192	0
bin	0.000194	0
bin	0.000196	0
bin	0.000198	0
bin	0.0002	0
bin	0.000202	0
bin	0.000204	0
bin	0.000206	0
bin	0.000208	0
bin	0.00021	0
bin	0.000212	0
scalar RoutingScenario.node[0].wlan[0].mac.dcf.channelAccess.inProgressFrames queueLength:max 1
attr interpolationmode sample-hold
attr source "count(packetEnqueued) - count(packetDequeued)"
attr title "queue length, max"
scalar RoutingScenario.node[0].wlan[0].mac.dcf.channelAccess.inProgressFrames queueLength:timeavg 7.7161704155283e-05
attr interpolationmode sample-hold
attr source "count(packetEnqueued) - count(packetDequeued)"
attr title "queue length, timeavg"
scalar RoutingScenario.node[0].wlan[0].mac.dcf.channelAccess.contention channelAccessGranted:count 10
attr title "channel access granted, count"
scalar RoutingScenario.node[0].wlan[0].mac.dcf.channelAccess.contention stateChanged:count 186
attr interpolationmode none
attr title "contention state changed, count"
scalar RoutingScenario.node[0].wlan[0].mac.dcf.channelAccess channelOwnershipChanged:count 20
attr interpolationmode sample-hold
attr title "channel ownership, count"
scalar RoutingScenario.node[0].wlan[0].mac.dcf.originatorMacDataService packetAggregated:count 0
attr title "packets aggregated, count"
scalar RoutingScenario.node[0].wlan[0].mac.dcf.originatorMacDataService packetFragmented:count 0
attr title "packets fragmented, count"
scalar RoutingScenario.node[0].wlan[0].mac.dcf.recipientMacDataService packetDeaggregated:count 0
attr title "packets deaggregated, count"
scalar RoutingScenario.node[0].wlan[0].mac.dcf.recipientMacDataService packetDefragmented:count 22
attr title "packets defragmented, count"
scalar RoutingScenario.node[0].wlan[0].mac.dcf.recipientMacDataService packetDropDuplicateDetected:count 0
attr interpolationmode none
attr source packetDropReasonIsDuplicateDetected(packetDropped)
attr title "packet drops: duplicate detected, count"
scalar RoutingScenario.node[0].wlan[0].mac.dcf.recipientMacDataService packetDropDuplicateDetected:sum(packetBytes) 0
attr interpolationmode none
attr source packetDropReasonIsDuplicateDetected(packetDropped)
attr title "packet drops: duplicate detected, sum(packetBytes)"
scalar RoutingScenario.node[0].wlan[0].mac.dcf.recoveryProcedure retryLimitReached:count 0
attr title "retry limit reached, count"
scalar RoutingScenario.node[0].wlan[0].mac.dcf frameSequenceFinished:count 10
attr title "finished frame sequences, count"
statistic RoutingScenario.node[0].wlan[0].mac.dcf frameSequenceDuration:histogram
field count 10
field mean 0.0001365580568
field stddev 5.1188265402206e-05
field min 8.8e-05
field max 0.000186118606
field sum 0.001365580568
field sqrsum 2.100631754039e-07
attr source frameSequenceDuration(frameSequenceFinished)
attr title "frame sequence durations, histogram"
bin	-inf	0
bin	6.2e-05	0
bin	6.4e-05	0
bin	6.6e-05	0
bin	6.8e-05	0
bin	7e-05	0
bin	7.2e-05	0
bin	7.4e-05	0
bin	7.6e-05	0
bin	7.8e-05	0
bin	8e-05	0
bin	8.2e-05	0
bin	8.4e-05	0
bin	8.6e-05	5
bin	8.8e-05	0
bin	9e-05	0
bin	9.2e-05	0
bin	9.4e-05	0
bin	9.6e-05	0
bin	9.8e-05	0
bin	0.0001	0
bin	0.000102	0
bin	0.000104	0
bin	0.000106	0
bin	0.000108	0
bin	0.00011	0
bin	0.000112	0
bin	0.000114	0
bin	0.000116	0
bin	0.000118	0
bin	0.00012	0
bin	0.000122	0
bin	0.000124	0
bin	0.000126	0
bin	0.000128	0
bin	0.00013	0
bin	0.000132	0
bin	0.000134	0
bin	0.000136	0
bin	0.000138	0
bin	0.00014	0
bin	0.000142	0
bin	0.000144	0
bin	0.000146	0
bin	0.000148	0
bin	0.00015	0
bin	0.000152	0
bin	0.000154	0
bin	0.000156	0
bin	0.000158	0
bin	0.00016	0
bin	0.000162	0
bin	0.000164	0
bin	0.000166	0
bin	0.000168	0
bin	0.00017	0
bin	0.000172	0
bin	0.000174	0
bin	0.000176	0
bin	0.000178	0
bin	0.00018	0
bin	0.000182	0
bin	0.000184	3
bin	0.000186	2
bin	0.000188	0
bin	0.00019	0
bin	0.000192	0
bin	0.000194	0
bin	0.000196	0
bin	0.000198	0
bin	0.0002	0
bin	0.000202	0
bin	0.000204	0
bin	0.000206	0
bin	0.000208	0
bin	0.00021	0
bin	0.000212	0
statistic RoutingScenario.node[0].wlan[0].mac.dcf frameSequenceNumPackets:histogram
field count 10
field mean 1.5
field stddev 0.52704627669473
field min 1
field max 2
field sum 15
field sqrsum 25
attr source frameSequenceNumPackets(frameSequenceFinished)
attr title "frame sequences: number of packets, histogram"
bin	-inf	0
bin	0	0
bin	1	5
bin	2	5
bin	3	0
scalar RoutingScenario.node[0].wlan[0].mac.dcf packetReceivedFromPeer:count 27
attr interpolationmode none
attr title "packets received, count"
scalar RoutingScenario.node[0].wlan[0].mac.dcf packetReceivedFromPeer:sum(packetBytes) 1802
attr interpolationmode none
attr title "packets received, sum(packetBytes)"
scalar RoutingScenario.node[0].wlan[0].mac.dcf packetReceivedFromPeerUnicast:count 8
attr interpolationmode none
attr source ieee80211Unicast(packetReceivedFromPeer)
attr title "packets received: unicast, count"
scalar RoutingScenario.node[0].wlan[0].mac.dcf packetReceivedFromPeerUnicast:sum(packetBytes) 244
attr interpolationmode none
attr source ieee80211Unicast(packetReceivedFromPeer)
attr title "packets received: unicast, sum(packetBytes)"
scalar RoutingScenario.node[0].wlan[0].mac.dcf packetReceivedFromPeerMulticast:count 19
attr interpolationmode none
attr source ieee80211Multicast(packetReceivedFromPeer)
attr title "packets received: multicast, count"
scalar RoutingScenario.node[0].wlan[0].mac.dcf packetReceivedFromPeerMulticast:sum(packetBytes) 1558
attr interpolationmode none
attr source ieee80211Multicast(packetReceivedFromPeer)
attr title "packets received: multicast, sum(packetBytes)"
scalar RoutingScenario.node[0].wlan[0].mac.dcf packetReceivedFromPeerBroadcast:count 19
attr interpolationmode none
attr source ieee80211Broadcast(packetReceivedFromPeer)
attr title "packets received: broadcast, count"
scalar RoutingScenario.node[0].wlan[0].mac.dcf packetReceivedFromPeerBroadcast:sum(packetBytes) 1558
attr interpolationmode none
attr source ieee80211Broadcast(packetReceivedFromPeer)
attr title "packets received: broadcast, sum(packetBytes)"
scalar RoutingScenario.node[0].wlan[0].mac.dcf packetReceivedFromPeerWithRetry:count 0
attr interpolationmode none
attr source ieee80211Retry(packetReceivedFromPeer)
attr title "packets received: with retry, count"
scalar RoutingScenario.node[0].wlan[0].mac.dcf packetReceivedFromPeerWithRetry:sum(packetBytes) 0
attr interpolationmode none
attr source ieee80211Retry(packetReceivedFromPeer)
attr title "packets received: with retry, sum(packetBytes)"
scalar RoutingScenario.node[0].wlan[0].mac.dcf packetReceivedFromPeerWithoutRetry:count 27
attr interpolationmode none
attr source ieee80211NotRetry(packetReceivedFromPeer)
attr title "packets received: without retry, count"
scalar RoutingScenario.node[0].wlan[0].mac.dcf packetReceivedFromPeerWithoutRetry:sum(packetBytes) 1802
attr interpolationmode none
attr source ieee80211NotRetry(packetReceivedFromPeer)
attr title "packets received: without retry, sum(packetBytes)"
scalar RoutingScenario.node[0].wlan[0].mac.dcf packetSentToPeer:count 13
attr interpolationmode none
attr title "packets sent, count"
scalar RoutingScenario.node[0].wlan[0].mac.dcf packetSentToPeer:sum(packetBytes) 722
attr interpolationmode none
attr title "packets sent, sum(packetBytes)"
scalar RoutingScenario.node[0].wlan[0].mac.dcf packetSentToPeerUnicast:count 8
attr interpolationmode none
attr source ieee80211Unicast(packetSentToPeer)
attr title "packets sent: unicast, count"
scalar RoutingScenario.node[0].wlan[0].mac.dcf packetSentToPeerUnicast:sum(packetBytes) 432
attr interpolationmode none
attr source ieee80211Unicast(packetSentToPeer)
attr title "packets sent: unicast, sum(packetBytes)"
scalar RoutingScenario.node[0].wlan[0].mac.dcf packetSentToPeerMulticast:count 5
attr interpolationmode none
attr source ieee80211Multicast(packetSentToPeer)
attr title "packets sent: multicast, count"
scalar RoutingScenario.node[0].wlan[0].mac.dcf packetSentToPeerMulticast:sum(packetBytes) 290
attr interpolationmode none
attr source ieee80211Multicast(packetSentToPeer)
attr title "packets sent: multicast, sum(packetBytes)"
scalar RoutingScenario.node[0].wlan[0].mac.dcf packetSentToPeerBroadcast:count 5
attr interpolationmode none
attr source ieee80211Broadcast(packetSentToPeer)
attr title "packets sent: broadcast , count"
scalar RoutingScenario.node[0].wlan[0].mac.dcf packetSentToPeerBroadcast:sum(packetBytes) 290
attr interpolationmode none
attr source ieee80211Broadcast(packetSentToPeer)
attr title "packets sent: broadcast , sum(packetBytes)"
scalar RoutingScenario.node[0].wlan[0].mac.dcf packetSentToPeerWithRetry:count 0
attr interpolationmode none
attr source ieee80211Retry(packetSentToPeer)
attr title "packets sent: with retry, count"
scalar RoutingScenario.node[0].wlan[0].mac.dcf packetSentToPeerWithRetry:sum(packetBytes) 0
attr interpolationmode none
attr source ieee80211Retry(packetSentToPeer)
attr title "packets sent: with retry, sum(packetBytes)"
scalar RoutingScenario.node[0].wlan[0].mac.dcf packetSentToPeerWithoutRetry:count 13
attr interpolationmode none
attr source ieee80211NotRetry(packetSentToPeer)
attr title "packets sent: without retry, count"
scalar RoutingScenario.node[0].wlan[0].mac.dcf packetSentToPeerWithoutRetry:sum(packetBytes) 722
attr interpolationmode none
attr source ieee80211NotRetry(packetSentToPeer)
attr title "packets sent: without retry, sum(packetBytes)"
scalar RoutingScenario.node[0].wlan[0].mac.dcf packetDrop:count 0
attr interpolationmode none
attr source packetDropped
attr title "packet drops, count"
scalar RoutingScenario.node[0].wlan[0].mac.dcf packetDrop:sum(packetBytes) 0
attr interpolationmode none
attr source packetDropped
attr title "packet drops, sum(packetBytes)"
scalar RoutingScenario.node[0].wlan[0].mac.dcf packetDropNotAddressedToUs:count 0
attr interpolationmode none
attr source packetDropReasonIsNotAddressedToUs(packetDropped)
attr title "packet drops: not addressed to us, count"
scalar RoutingScenario.node[0].wlan[0].mac.dcf packetDropNotAddressedToUs:sum(packetBytes) 0
attr interpolationmode none
attr source packetDropReasonIsNotAddressedToUs(packetDropped)
attr title "packet drops: not addressed to us, sum(packetBytes)"
scalar RoutingScenario.node[0].wlan[0].mac.dcf packetDropQueueOverflow:count 0
attr interpolationmode none
attr source packetDropReasonIsQueueOverflow(packetDropped)
attr title "packet drops: queue overflow, count"
scalar RoutingScenario.node[0].wlan[0].mac.dcf packetDropQueueOverflow:sum(packetBytes) 0
attr interpolationmode none
attr source packetDropReasonIsQueueOverflow(packetDropped)
attr title "packet drops: queue overflow, sum(packetBytes)"
scalar RoutingScenario.node[0].wlan[0].mac.dcf packetDropRetryLimitReached:count 0
attr interpolationmode none
attr source packetDropReasonIsRetryLimitReached(packetDropped)
attr title "packet drops: retry limit reached, count"
scalar RoutingScenario.node[0].wlan[0].mac.dcf packetDropRetryLimitReached:sum(packetBytes) 0
attr interpolationmode none
attr source packetDropReasonIsRetryLimitReached(packetDropped)
attr title "packet drops: retry limit reached, sum(packetBytes)"
scalar RoutingScenario.node[0].wlan[0].mac.dcf linkBroken:count 0
attr interpolationmode none
attr title "link breaks, count"
scalar RoutingScenario.node[0].wlan[0].mac packetReceivedFromLower:count 27
attr interpolationmode none
attr title "packets received from lower layer, count"
scalar RoutingScenario.node[0].wlan[0].mac packetReceivedFromLower:sum(packetBytes) 1802
attr interpolationmode none
attr title "packets received from lower layer, sum(packetBytes)"
scalar RoutingScenario.node[0].wlan[0].mac packetSentToLower:count 13
attr interpolationmode none
attr title "packets sent to lower layer, count"
scalar RoutingScenario.node[0].wlan[0].mac packetSentToLower:sum(packetBytes) 722
attr interpolationmode none
attr title "packets sent to lower layer, sum(packetBytes)"
scalar RoutingScenario.node[0].wlan[0].mac packetReceivedFromUpper:count 10
attr interpolationmode none
attr title "packets received from upper layer, count"
scalar RoutingScenario.node[0].wlan[0].mac packetReceivedFromUpper:sum(packetBytes) 400
attr interpolationmode none
attr title "packets received from upper layer, sum(packetBytes)"
scalar RoutingScenario.node[0].wlan[0].mac packetSentToUpper:count 22
attr interpolationmode none
attr title "packets sent to upper layer, count"
scalar RoutingScenario.node[0].wlan[0].mac packetSentToUpper:sum(packetBytes) 1116
attr interpolationmode none
attr title "packets sent to upper layer, sum(packetBytes)"
scalar RoutingScenario.node[0].wlan[0].mac packetDrop:count 0
attr interpolationmode none
attr source packetDropped
attr title "packet drops, count"
scalar RoutingScenario.node[0].wlan[0].mac packetDrop:sum(packetBytes) 0
attr interpolationmode none
attr source packetDropped
attr title "packet drops, sum(packetBytes)"
scalar RoutingScenario.node[0].wlan[0].mac packetDropIncorrectlyReceived:count 0
attr interpolationmode none
attr source packetDropReasonIsIncorrectlyReceived(packetDropped)
attr title "packet drops: incorrectly received, count"
scalar RoutingScenario.node[0].wlan[0].mac packetDropIncorrectlyReceived:sum(packetBytes) 0
attr interpolationmode none
attr source packetDropReasonIsIncorrectlyReceived(packetDropped)
attr title "packet drops: incorrectly received, sum(packetBytes)"
scalar RoutingScenario.node[0].wlan[0].mac packetDropNotAddressedToUs:count 0
attr interpolationmode none
attr source packetDropReasonIsNotAddressedToUs(packetDropped)
attr title "packet drops: not addressed to us, count"
scalar RoutingScenario.node[0].wlan[0].mac packetDropNotAddressedToUs:sum(packetBytes) 0
attr interpolationmode none
attr source packetDropReasonIsNotAddressedToUs(packetDropped)
attr title "packet drops: not addressed to us, sum(packetBytes)"
scalar RoutingScenario.node[0].wlan[0].mac packetDropQueueOverflow:count 0
attr interpolationmode none
attr source packetDropReasonIsQueueOverflow(packetDropped)
attr title "packet drops: queue overflow, count"
scalar RoutingScenario.node[0].wlan[0].mac packetDropQueueOverflow:sum(packetBytes) 0
attr interpolationmode none
attr source packetDropReasonIsQueueOverflow(packetDropped)
attr title "packet drops: queue overflow, sum(packetBytes)"
scalar RoutingScenario.node[0].wlan[0].mac packetDropRetryLimitReached:count 0
attr interpolationmode none
attr source packetDropReasonIsRetryLimitReached(packetDropped)
attr title "packet drops: retry limit reached, count"
scalar RoutingScenario.node[0].wlan[0].mac packetDropRetryLimitReached:sum(packetBytes) 0
attr interpolationmode none
attr source packetDropReasonIsRetryLimitReached(packetDropped)
attr title "packet drops: retry limit reached, sum(packetBytes)"
scalar RoutingScenario.node[0].wlan[0].mac packetDropDuplicateDetected:count 0
attr interpolationmode none
attr source packetDropReasonIsDuplicateDetected(packetDropped)
attr title "packet drops: duplicate detected, count"
scalar RoutingScenario.node[0].wlan[0].mac packetDropDuplicateDetected:sum(packetBytes) 0
attr interpolationmode none
attr source packetDropReasonIsDuplicateDetected(packetDropped)
attr title "packet drops: duplicate detected, sum(packetBytes)"
scalar RoutingScenario.node[0].wlan[0].mac packetDropOther:count 0
attr interpolationmode none
attr source packetDropReasonIsOther(packetDropped)
attr title "packet drops: other, count"
scalar RoutingScenario.node[0].wlan[0].mac packetDropOther:sum(packetBytes) 0
attr interpolationmode none
attr source packetDropReasonIsOther(packetDropped)
attr title "packet drops: other, sum(packetBytes)"
scalar RoutingScenario.node[0].wlan[0].mac linkBroken:count 0
attr interpolationmode none
attr title "link breaks, count"
statistic RoutingScenario.node[0].wlan[0].radio radioChannel:histogram
field count 1
field mean 3
field stddev -nan
field min 3
field max 3
field sum 3
field sqrsum 9
attr interpolationmode sample-hold
attr source radioChannelChanged
attr title "Radio channel, histogram"
bin	-inf	0
bin	2	0
bin	3	1
bin	4	0
scalar RoutingScenario.node[0].wlan[0].radio radioMode:count 29
attr interpolationmode sample-hold
attr source radioModeChanged
attr title "Radio mode, count"
scalar RoutingScenario.node[0].wlan[0].radio receptionState:count 83
attr interpolationmode sample-hold
attr source receptionStateChanged
attr title "Radio reception state, count"
scalar RoutingScenario.node[0].wlan[0].radio transmissionState:count 52
attr interpolationmode sample-hold
attr source transmissionStateChanged
attr title "Radio transmission state, count"
statistic RoutingScenario.node[0].wlan[0].radio minSnir:histogram
field count 27
field mean 3653.300974625
field stddev 3525.3732398851
field min 20.558972793627
field max 10777.314384701
field sum 98639.126314875
field sqrsum 683493084.79525
attr source minimumSnir(packetSentToUpper)
attr title "Min SNIR, histogram"
bin	-inf	0
bin	0	2
bin	200	11
bin	400	0
bin	600	0
bin	800	0
bin	1000	0
bin	1200	0
bin	1400	0
bin	1600	0
bin	1800	0
bin	2000	0
bin	2200	0
bin	2400	0
bin	2600	0
bin	2800	0
bin	3000	0
bin	3200	0
bin	3400	0
bin	3600	0
bin	3800	0
bin	4000	0
bin	4200	0
bin	4400	0
bin	4600	0
bin	4800	0
bin	5000	0
bin	5200	0
bin	5400	0
bin	5600	1
bin	5800	7
bin	6000	0
bin	6200	0
bin	6400	2
bin	6600	2
bin	6800	0
bin	7000	0
bin	7200	0
bin	7400	0
bin	7600	0
bin	7800	0
bin	8000	0
bin	8200	0
bin	8400	0
bin	8600	0
bin	8800	0
bin	9000	0
bin	9200	0
bin	9400	0
bin	9600	0
bin	9800	0
bin	10000	0
bin	10200	0
bin	10400	0
bin	10600	2
bin	10800	0
bin	11000	0
bin	11200	0
bin	11400	0
bin	11600	0
bin	11800	0
bin	12000	0
bin	12200	0
bin	12400	0
bin	12600	0
bin	12800	0
bin	13000	0
bin	13200	0
bin	13400	0
bin	13600	0
statistic RoutingScenario.node[0].wlan[0].radio packetErrorRate:histogram
field count 27
field mean 0.00082417429135352
field stddev 0.0042825352407491
field min 0
field max 0.022252705866545
field sum 0.022252705866545
field sqrsum 0.00049518291838297
attr source packetErrorRate(packetSentToUpper)
attr title "Packet error rate, histogram"
bin	-inf	0
bin	0	26
bin	0.0005	0
bin	0.001	0
bin	0.0015	0
bin	0.002	0
bin	0.0025	0
bin	0.003	0
bin	0.0035	0
bin	0.004	0
bin	0.0045	0
bin	0.005	0
bin	0.0055	0
bin	0.006	0
bin	0.0065	0
bin	0.007	0
bin	0.0075	0
bin	0.008	0
bin	0.0085	0
bin	0.009	0
bin	0.0095	0
bin	0.01	0
bin	0.0105	0
bin	0.011	0
bin	0.0115	0
bin	0.012	0
bin	0.0125	0
bin	0.013	0
bin	0.0135	0
bin	0.014	0
bin	0.0145	0
bin	0.015	0
bin	0.0155	0
bin	0.016	0
bin	0.0165	0
bin	0.017	0
bin	0.0175	0
bin	0.018	0
bin	0.0185	0
bin	0.019	0
bin	0.0195	0
bin	0.02	0
bin	0.0205	0
bin	0.021	0
bin	0.0215	0
bin	0.022	1
bin	0.0225	0
bin	0.023	0
bin	0.0235	0
bin	0.024	0
bin	0.0245	0
bin	0.025	0
bin	0.0255	0
bin	0.026	0
bin	0.0265	0
bin	0.027	0
bin	0.0275	0
bin	0.028	0
statistic RoutingScenario.node[0].wlan[0].radio bitErrorRate:histogram
field count 0
field mean -nan
field stddev nan
field min nan
field max nan
field sum 0
field sqrsum 0
attr source bitErrorRate(packetSentToUpper)
attr title "Bit error rate, histogram"
bin	-inf	0
bin	0	0
bin	1	0
statistic RoutingScenario.node[0].wlan[0].radio symbolErrorRate:histogram
field count 0
field mean -nan
field stddev nan
field min nan
field max nan
field sum 0
field sqrsum 0
attr source symbolErrorRate(packetSentToUpper)
attr title "Symbol error rate, histogram"
bin	-inf	0
bin	0	0
bin	1	0
scalar RoutingScenario.node[0].ipv4.ip packetDropAddressResolutionFailed:count 0
attr interpolationmode none
attr source packetDropReasonIsAddressResolutionFailed(packetDropped)
attr title "packet drop: address resolution failed, count"
scalar RoutingScenario.node[0].ipv4.ip packetDropAddressResolutionFailed:sum(packetBytes) 0
attr interpolationmode none
attr source packetDropReasonIsAddressResolutionFailed(packetDropped)
attr title "packet drop: address resolution failed, sum(packetBytes)"
scalar RoutingScenario.node[0].ipv4.ip packetDropHopLimitReached:count 0
attr interpolationmode none
attr source packetDropReasonIsHopLimitReached(packetDropped)
attr title "packet drop: hop limit reached, count"
scalar RoutingScenario.node[0].ipv4.ip packetDropHopLimitReached:sum(packetBytes) 0
attr interpolationmode none
attr source packetDropReasonIsHopLimitReached(packetDropped)
attr title "packet drop: hop limit reached, sum(packetBytes)"
scalar RoutingScenario.node[0].ipv4.ip packetDropForwardingDisabled:count 0
attr interpolationmode none
attr source packetDropReasonIsForwardingDisabled(packetDropped)
attr title "packet drop: forwarding disabled, count"
scalar RoutingScenario.node[0].ipv4.ip packetDropForwardingDisabled:sum(packetBytes) 0
attr interpolationmode none
attr source packetDropReasonIsForwardingDisabled(packetDropped)
attr title "packet drop: forwarding disabled, sum(packetBytes)"
scalar RoutingScenario.node[0].ipv4.ip packetDropNoInterfaceFound:count 0
attr interpolationmode none
attr source packetDropReasonIsNoInterfaceFound(packetDropped)
attr title "packet drop: no interface found, count"
scalar RoutingScenario.node[0].ipv4.ip packetDropNoInterfaceFound:sum(packetBytes) 0
attr interpolationmode none
attr source packetDropReasonIsNoInterfaceFound(packetDropped)
attr title "packet drop: no interface found, sum(packetBytes)"
scalar RoutingScenario.node[0].ipv4.ip packetDropNoRouteFound:count 0
attr interpolationmode none
attr source packetDropReasonIsNoRouteFound(packetDropped)
attr title "packet drop: no route found, count"
scalar RoutingScenario.node[0].ipv4.ip packetDropNoRouteFound:sum(packetBytes) 0
attr interpolationmode none
attr source packetDropReasonIsNoRouteFound(packetDropped)
attr title "packet drop: no route found, sum(packetBytes)"
scalar RoutingScenario.node[0].ipv4.ip packetDropUndefined:count 0
attr interpolationmode none
attr source packetDropReasonIsUndefined(packetDropped)
attr title "packet drop: undefined, count"
scalar RoutingScenario.node[0].ipv4.ip packetDropUndefined:sum(packetBytes) 0
attr interpolationmode none
attr source packetDropReasonIsUndefined(packetDropped)
attr title "packet drop: undefined, sum(packetBytes)"
scalar RoutingScenario.node[0].ipv4.arp arpResolutionFailed:count 0
attr title "ARP failed resolutions, count"
scalar RoutingScenario.node[0].ipv4.arp arpResolutionCompleted:count 3
attr title "ARP completed resolutions, count"
scalar RoutingScenario.node[0].ipv4.arp arpResolutionInitiated:count 3
attr title "ARP initiated resolutions, count"
scalar RoutingScenario.node[0].ipv4.arp arpReplySent:count 0
attr source arpReplySent
attr title "ARP replies sent, count"
scalar RoutingScenario.node[0].ipv4.arp arpReplySent:sum(packetBytes) 0
attr source arpReplySent
attr title "ARP replies sent, sum(packetBytes)"
scalar RoutingScenario.node[0].ipv4.arp arpRequestSent:count 5
attr source arpRequestSent
attr title "ARP request sent, count"
scalar RoutingScenario.node[0].ipv4.arp arpRequestSent:sum(packetBytes) 140
attr source arpRequestSent
attr title "ARP request sent, sum(packetBytes)"
scalar RoutingScenario.node[0].udp packetReceived:count 1422
attr interpolationmode none
attr source packetReceived
attr title "packets received, count"
scalar RoutingScenario.node[0].udp packetReceived:sum(packetBytes) 1414832
attr interpolationmode none
attr source packetReceived
attr title "packets received, sum(packetBytes)"
scalar RoutingScenario.node[0].udp packetSent:count 1408
attr interpolationmode none
attr source packetSent
attr title "packets sent, count"
scalar RoutingScenario.node[0].udp packetSent:sum(packetBytes) 1414364
attr interpolationmode none
attr source packetSent
attr title "packets sent, sum(packetBytes)"
scalar RoutingScenario.node[0].udp passedUpPk:count 19
attr interpolationmode none
attr source packetSentToUpper
attr title "packets passed up, count"
scalar RoutingScenario.node[0].udp droppedPkWrongPort:count 1403
attr interpolationmode none
attr source packetDropReasonIsNoPortFound(packetDropped)
attr title "packets dropped (wrong port), count"
scalar RoutingScenario.node[0].udp droppedPkBadChecksum:count 0
attr interpolationmode none
attr source packetDropReasonIsIncorrectlyReceived(packetDropped)
attr title "packets dropped (checksum error), count"
scalar RoutingScenario.node[0].app[0] "packets sent" 1403
scalar RoutingScenario.node[0].app[0] "packets received" 0
scalar RoutingScenario.node[0].app[0] packetReceived:count 0
attr interpolationmode none
attr source packetReceived
attr title "packets received, count"
scalar RoutingScenario.node[0].app[0] packetReceived:sum(packetBytes) 0
attr interpolationmode none
attr source packetReceived
attr title "packets received, sum(packetBytes)"
statistic RoutingScenario.node[0].app[0] rcvdPkLifetime:stats
field count 0
field mean -nan
field stddev nan
field min nan
field max nan
field sum 0
field sqrsum 0
attr interpolationmode none
attr source dataAge(packetReceived)
attr title "received packet lifetime, stats"
attr unit s
scalar RoutingScenario.node[0].app[0] packetSent:count 1403
attr interpolationmode none
attr source packetSent
attr title "packets sent, count"
scalar RoutingScenario.node[0].app[0] packetSent:sum(packetBytes) 1403000
attr interpolationmode none
attr source packetSent
attr title "packets sent, sum(packetBytes)"
scalar RoutingScenario.node[1].lo[0].lo rcvdPkFromHl:count 0
attr interpolationmode none
attr source packetReceivedFromUpper
attr title "packets received from higher layer, count"
scalar RoutingScenario.node[1].lo[0].lo rcvdPkFromHl:sum(packetBytes) 0
attr interpolationmode none
attr source packetReceivedFromUpper
attr title "packets received from higher layer, sum(packetBytes)"
scalar RoutingScenario.node[1].lo[0].lo passedUpPk:count 0
attr interpolationmode none
attr source packetSentToUpper
attr title "packets passed to higher layer, count"
scalar RoutingScenario.node[1].lo[0].lo passedUpPk:sum(packetBytes) 0
attr interpolationmode none
attr source packetSentToUpper
attr title "packets passed to higher layer, sum(packetBytes)"
scalar RoutingScenario.node[1].wlan[0].mac.dcf.channelAccess.pendingQueue packetPopped:count 16
attr interpolationmode none
attr title "packet popped, count"
scalar RoutingScenario.node[1].wlan[0].mac.dcf.channelAccess.pendingQueue packetPopped:sum(packetBytes) 1288
attr interpolationmode none
attr title "packet popped, sum(packetBytes)"
statistic RoutingScenario.node[1].wlan[0].mac.dcf.channelAccess.pendingQueue queueingTime:histogram
field count 16
field mean 2.599660275e-05
field stddev 4.7867344329745e-05
field min 0
field max 0.000138957285
field sum 0.000415945644
field sqrsum 4.5182413470397e-08
attr interpolationmode none
attr source queueingTime(packetPopped)
attr title "queueing times, histogram"
attr unit s
bin	-inf	0
bin	0	11
bin	2e-06	0
bin	4e-06	0
bin	6e-06	0
bin	8e-06	0
bin	1e-05	0
bin	1.2e-05	0
bin	1.4e-05	0
bin	1.6e-05	0
bin	1.8e-05	1
bin	2e-05	0
bin	2.2e-05	0
bin	2.4e-05	0
bin	2.6e-05	0
bin	2.8e-05	0
bin	3e-05	0
bin	3.2e-05	0
bin	3.4e-05	0
bin	3.6e-05	0
bin	3.8e-05	0
bin	4e-05	0
bin	4.2e-05	0
bin	4.4e-05	0
bin	4.6e-05	0
bin	4.8e-05	0
bin	5e-05	0
bin	5.2e-05	0
bin	5.4e-05	1
bin	5.6e-05	0
bin	5.8e-05	0
bin	6e-05	0
bin	6.2e-05	0
bin	6.4e-05	0
bin	6.6e-05	0
bin	6.8e-05	0
bin	7e-05	1
bin	7.2e-05	0
bin	7.4e-05	0
bin	7.6e-05	0
bin	7.8e-05	0
bin	8e-05	0
bin	8.2e-05	0
bin	8.4e-05	0
bin	8.6e-05	0
bin	8.8e-05	0
bin	9e-05	0
bin	9.2e-05	0
bin	9.4e-05	0
bin	9.6e-05	0
bin	9.8e-05	0
bin	0.0001	0
bin	0.000102	0
bin	0.000104	0
bin	0.000106	0
bin	0.000108	0
bin	0.00011	0
bin	0.000112	0
bin	0.000114	0
bin	0.000116	0
bin	0.000118	0
bin	0.00012	0
bin	0.000122	0
bin	0.000124	0
bin	0.000126	0
bin	0.000128	0
bin	0.00013	0
bin	0.000132	1
bin	0.000134	0
bin	0.000136	0
bin	0.000138	1
bin	0.00014	0
bin	0.000142	0
bin	0.000144	0
bin	0.000146	0
bin	0.000148	0
bin	0.00015	0
bin	0.000152	0
bin	0.000154	0
bin	0.000156	0
bin	0.000158	0
bin	0.00016	0
bin	0.000162	0
bin	0.000164	0
bin	0.000166	0
bin	0.000168	0
bin	0.00017	0
bin	0.000172	0
bin	0.000174	0
scalar RoutingScenario.node[1].wlan[0].mac.dcf.channelAccess.pendingQueue queueLength:max 1
attr interpolationmode sample-hold
attr source "count(packetPushed) - count(packetPopped) - count(packetRemoved) - count(packetDropped)"
attr title "queue length, max"
scalar RoutingScenario.node[1].wlan[0].mac.dcf.channelAccess.pendingQueue queueLength:timeavg 2.3502247031706e-05
attr interpolationmode sample-hold
attr source "count(packetPushed) - count(packetPopped) - count(packetRemoved) - count(packetDropped)"
attr title "queue length, timeavg"
scalar RoutingScenario.node[1].wlan[0].mac.dcf.channelAccess.pendingQueue packetPushed:count 16
attr interpolationmode none
attr title "packet pushed, count"
scalar RoutingScenario.node[1].wlan[0].mac.dcf.channelAccess.pendingQueue packetPushed:sum(packetBytes) 1288
attr interpolationmode none
attr title "packet pushed, sum(packetBytes)"
scalar RoutingScenario.node[1].wlan[0].mac.dcf.channelAccess.pendingQueue packetDropQueueOverflow:count 0
attr interpolationmode none
attr source packetDropReasonIsQueueOverflow(packetDropped)
attr title "packet drops: queue overflow, count"
scalar RoutingScenario.node[1].wlan[0].mac.dcf.channelAccess.pendingQueue packetDropQueueOverflow:sum(packetBytes) 0
attr interpolationmode none
attr source packetDropReasonIsQueueOverflow(packetDropped)
attr title "packet drops: queue overflow, sum(packetBytes)"
scalar RoutingScenario.node[1].wlan[0].mac.dcf.channelAccess.pendingQueue packetRemoved:count 0
attr interpolationmode none
attr title "packets removed, count"
scalar RoutingScenario.node[1].wlan[0].mac.dcf.channelAccess.pendingQueue packetRemoved:sum(packetBytes) 0
attr interpolationmode none
attr title "packets removed, sum(packetBytes)"
statistic RoutingScenario.node[1].wlan[0].mac.dcf.channelAccess.inProgressFrames queueingTime:histogram
field count 16
field mean 0.0001305473335
field stddev 0.000106189334
field min 0.000104
field max 0.000528757336
field sum 0.002088757336
field sqrsum 4.4182432037382e-07
attr interpolationmode none
attr source queueingTime(packetDequeued)
attr title "queueing times, histogram"
bin	-inf	0
bin	0	0
bin	1e-05	0
bin	2e-05	0
bin	3e-05	0
bin	4e-05	0
bin	5e-05	0
bin	6e-05	0
bin	7e-05	0
bin	8e-05	0
bin	9e-05	0
bin	0.0001	15
bin	0.00011	0
bin	0.00012	0
bin	0.00013	0
bin	0.00014	0
bin	0.00015	0
bin	0.00016	0
bin	0.00017	0
bin	0.00018	0
bin	0.00019	0
bin	0.0002	0
bin	0.00021	0
bin	0.00022	0
bin	0.00023	0
bin	0.00024	0
bin	0.00025	0
bin	0.00026	0
bin	0.00027	0
bin	0.00028	0
bin	0.00029	0
bin	0.0003	0
bin	0.00031	0
bin	0.00032	0
bin	0.00033	0
bin	0.00034	0
bin	0.00035	0
bin	0.00036	0
bin	0.00037	0
bin	0.00038	0
bin	0.00039	0
bin	0.0004	0
bin	0.00041	0
bin	0.00042	0
bin	0.00043	0
bin	0.00044	0
bin	0.00045	0
bin	0.00046	0
bin	0.00047	0
bin	0.00048	0
bin	0.00049	0
bin	0.0005	0
bin	0.00051	0
bin	0.00052	1
bin	0.00053	0
bin	0.00054	0
bin	0.00055	0
bin	0.00056	0
bin	0.00057	0
bin	0.00058	0
bin	0.00059	0
bin	0.0006	0
bin	0.00061	0
bin	0.00062	0
bin	0.00063	0
bin	0.00064	0
scalar RoutingScenario.node[1].wlan[0].mac.dcf.channelAccess.inProgressFrames queueLength:max 1
attr interpolationmode sample-hold
attr source "count(packetEnqueued) - count(packetDequeued)"
attr title "queue length, max"
scalar RoutingScenario.node[1].wlan[0].mac.dcf.channelAccess.inProgressFrames queueLength:timeavg 0.00011802153881161
attr interpolationmode sample-hold
attr source "count(packetEnqueued) - count(packetDequeued)"
attr title "queue length, timeavg"
scalar RoutingScenario.node[1].wlan[0].mac.dcf.channelAccess.contention channelAccessGranted:count 17
attr title "channel access granted, count"
scalar RoutingScenario.node[1].wlan[0].mac.dcf.channelAccess.contention stateChanged:count 868
attr interpolationmode none
attr title "contention state changed, count"
scalar RoutingScenario.node[1].wlan[0].mac.dcf.channelAccess channelOwnershipChanged:count 34
attr interpolationmode sample-hold
attr title "channel ownership, count"
scalar RoutingScenario.node[1].wlan[0].mac.dcf.originatorMacDataService packetAggregated:count 0
attr title "packets aggregated, count"
scalar RoutingScenario.node[1].wlan[0].mac.dcf.originatorMacDataService packetFragmented:count 0
attr title "packets fragmented, count"
scalar RoutingScenario.node[1].wlan[0].mac.dcf.recipientMacDataService packetDeaggregated:count 0
attr title "packets deaggregated, count"
scalar RoutingScenario.node[1].wlan[0].mac.dcf.recipientMacDataService packetDefragmented:count 77
attr title "packets defragmented, count"
scalar RoutingScenario.node[1].wlan[0].mac.dcf.recipientMacDataService packetDropDuplicateDetected:count 0
attr interpolationmode none
attr source packetDropReasonIsDuplicateDetected(packetDropped)
attr title "packet drops: duplicate detected, count"
scalar RoutingScenario.node[1].wlan[0].mac.dcf.recipientMacDataService packetDropDuplicateDetected:sum(packetBytes) 0
attr interpolationmode none
attr source packetDropReasonIsDuplicateDetected(packetDropped)
attr title "packet drops: duplicate detected, sum(packetBytes)"
scalar RoutingScenario.node[1].wlan[0].mac.dcf.recoveryProcedure retryLimitReached:count 0
attr title "retry limit reached, count"
scalar RoutingScenario.node[1].wlan[0].mac.dcf frameSequenceFinished:count 17
attr title "finished frame sequences, count"
statistic RoutingScenario.node[1].wlan[0].mac.dcf frameSequenceDuration:histogram
field count 17
field mean 0.00011292690211765
field stddev 2.5210887689784e-05
field min 0.000104
field max 0.000182
field sum 0.001919757336
field sqrsum 2.2696167050182e-07
attr source frameSequenceDuration(frameSequenceFinished)
attr title "frame sequence durations, histogram"
bin	-inf	0
bin	8.4e-05	0
bin	8.6e-05	0
bin	8.8e-05	0
bin	9e-05	0
bin	9.2e-05	0
bin	9.4e-05	0
bin	9.6e-05	0
bin	9.8e-05	0
bin	0.0001	0
bin	0.000102	15
bin	0.000104	0
bin	0.000106	0
bin	0.000108	0
bin	0.00011	0
bin	0.000112	0
bin	0.000114	0
bin	0.000116	0
bin	0.000118	0
bin	0.00012	0
bin	0.000122	0
bin	0.000124	0
bin	0.000126	0
bin	0.000128	0
bin	0.00013	0
bin	0.000132	0
bin	0.000134	0
bin	0.000136	0
bin	0.000138	0
bin	0.00014	0
bin	0.000142	0
bin	0.000144	0
bin	0.000146	0
bin	0.000148	0
bin	0.00015	0
bin	0.000152	0
bin	0.000154	0
bin	0.000156	0
bin	0.000158	0
bin	0.00016	0
bin	0.000162	0
bin	0.000164	0
bin	0.000166	0
bin	0.000168	0
bin	0.00017	0
bin	0.000172	0
bin	0.000174	0
bin	0.000176	1
bin	0.000178	0
bin	0.00018	1
bin	0.000182	0
bin	0.000184	0
bin	0.000186	0
bin	0.000188	0
bin	0.00019	0
bin	0.000192	0
bin	0.000194	0
bin	0.000196	0
bin	0.000198	0
bin	0.0002	0
bin	0.000202	0
statistic RoutingScenario.node[1].wlan[0].mac.dcf frameSequenceNumPackets:histogram
field count 17
field mean 1.1176470588235
field stddev 0.33210558207754
field min 1
field max 2
field sum 19
field sqrsum 23
attr source frameSequenceNumPackets(frameSequenceFinished)
attr title "frame sequences: number of packets, histogram"
bin	-inf	0
bin	0	0
bin	1	15
bin	2	2
bin	3	0
scalar RoutingScenario.node[1].wlan[0].mac.dcf packetReceivedFromPeer:count 78
attr interpolationmode none
attr title "packets received, count"
scalar RoutingScenario.node[1].wlan[0].mac.dcf packetReceivedFromPeer:sum(packetBytes) 6140
attr interpolationmode none
attr title "packets received, sum(packetBytes)"
scalar RoutingScenario.node[1].wlan[0].mac.dcf packetReceivedFromPeerUnicast:count 6
attr interpolationmode none
attr source ieee80211Unicast(packetReceivedFromPeer)
attr title "packets received: unicast, count"
scalar RoutingScenario.node[1].wlan[0].mac.dcf packetReceivedFromPeerUnicast:sum(packetBytes) 404
attr interpolationmode none
attr source ieee80211Unicast(packetReceivedFromPeer)
attr title "packets received: unicast, sum(packetBytes)"
scalar RoutingScenario.node[1].wlan[0].mac.dcf packetReceivedFromPeerMulticast:count 72
attr interpolationmode none
attr source ieee80211Multicast(packetReceivedFromPeer)
attr title "packets received: multicast, count"
scalar RoutingScenario.node[1].wlan[0].mac.dcf packetReceivedFromPeerMulticast:sum(packetBytes) 5736
attr interpolationmode none
attr source ieee80211Multicast(packetReceivedFromPeer)
attr title "packets received: multicast, sum(packetBytes)"
scalar RoutingScenario.node[1].wlan[0].mac.dcf packetReceivedFromPeerBroadcast:count 72
attr interpolationmode none
attr source ieee80211Broadcast(packetReceivedFromPeer)
attr title "packets received: broadcast, count"
scalar RoutingScenario.node[1].wlan[0].mac.dcf packetReceivedFromPeerBroadcast:sum(packetBytes) 5736
attr interpolationmode none
attr source ieee80211Broadcast(packetReceivedFromPeer)
attr title "packets received: broadcast, sum(packetBytes)"
scalar RoutingScenario.node[1].wlan[0].mac.dcf packetReceivedFromPeerWithRetry:count 1
attr interpolationmode none
attr source ieee80211Retry(packetReceivedFromPeer)
attr title "packets received: with retry, count"
scalar RoutingScenario.node[1].wlan[0].mac.dcf packetReceivedFromPeerWithRetry:sum(packetBytes) 78
attr interpolationmode none
attr source ieee80211Retry(packetReceivedFromPeer)
attr title "packets received: with retry, sum(packetBytes)"
scalar RoutingScenario.node[1].wlan[0].mac.dcf packetReceivedFromPeerWithoutRetry:count 77
attr interpolationmode none
attr source ieee80211NotRetry(packetReceivedFromPeer)
attr title "packets received: without retry, count"
scalar RoutingScenario.node[1].wlan[0].mac.dcf packetReceivedFromPeerWithoutRetry:sum(packetBytes) 6062
attr interpolationmode none
attr source ieee80211NotRetry(packetReceivedFromPeer)
attr title "packets received: without retry, sum(packetBytes)"
scalar RoutingScenario.node[1].wlan[0].mac.dcf packetSentToPeer:count 22
attr interpolationmode none
attr title "packets sent, count"
scalar RoutingScenario.node[1].wlan[0].mac.dcf packetSentToPeer:sum(packetBytes) 1416
attr interpolationmode none
attr title "packets sent, sum(packetBytes)"
scalar RoutingScenario.node[1].wlan[0].mac.dcf packetSentToPeerUnicast:count 7
attr interpolationmode none
attr source ieee80211Unicast(packetSentToPeer)
attr title "packets sent: unicast, count"
scalar RoutingScenario.node[1].wlan[0].mac.dcf packetSentToPeerUnicast:sum(packetBytes) 186
attr interpolationmode none
attr source ieee80211Unicast(packetSentToPeer)
attr title "packets sent: unicast, sum(packetBytes)"
scalar RoutingScenario.node[1].wlan[0].mac.dcf packetSentToPeerMulticast:count 15
attr interpolationmode none
attr source ieee80211Multicast(packetSentToPeer)
attr title "packets sent: multicast, count"
scalar RoutingScenario.node[1].wlan[0].mac.dcf packetSentToPeerMulticast:sum(packetBytes) 1230
attr interpolationmode none
attr source ieee80211Multicast(packetSentToPeer)
attr title "packets sent: multicast, sum(packetBytes)"
scalar RoutingScenario.node[1].wlan[0].mac.dcf packetSentToPeerBroadcast:count 15
attr interpolationmode none
attr source ieee80211Broadcast(packetSentToPeer)
attr title "packets sent: broadcast , count"
scalar RoutingScenario.node[1].wlan[0].mac.dcf packetSentToPeerBroadcast:sum(packetBytes) 1230
attr interpolationmode none
attr source ieee80211Broadcast(packetSentToPeer)
attr title "packets sent: broadcast , sum(packetBytes)"
scalar RoutingScenario.node[1].wlan[0].mac.dcf packetSentToPeerWithRetry:count 1
attr interpolationmode none
attr source ieee80211Retry(packetSentToPeer)
attr title "packets sent: with retry, count"
scalar RoutingScenario.node[1].wlan[0].mac.dcf packetSentToPeerWithRetry:sum(packetBytes) 58
attr interpolationmode none
attr source ieee80211Retry(packetSentToPeer)
attr title "packets sent: with retry, sum(packetBytes)"
scalar RoutingScenario.node[1].wlan[0].mac.dcf packetSentToPeerWithoutRetry:count 21
attr interpolationmode none
attr source ieee80211NotRetry(packetSentToPeer)
attr title "packets sent: without retry, count"
scalar RoutingScenario.node[1].wlan[0].mac.dcf packetSentToPeerWithoutRetry:sum(packetBytes) 1358
attr interpolationmode none
attr source ieee80211NotRetry(packetSentToPeer)
attr title "packets sent: without retry, sum(packetBytes)"
scalar RoutingScenario.node[1].wlan[0].mac.dcf packetDrop:count 56
attr interpolationmode none
attr source packetDropped
attr title "packet drops, count"
scalar RoutingScenario.node[1].wlan[0].mac.dcf packetDrop:sum(packetBytes) 2752
attr interpolationmode none
attr source packetDropped
attr title "packet drops, sum(packetBytes)"
scalar RoutingScenario.node[1].wlan[0].mac.dcf packetDropNotAddressedToUs:count 56
attr interpolationmode none
attr source packetDropReasonIsNotAddressedToUs(packetDropped)
attr title "packet drops: not addressed to us, count"
scalar RoutingScenario.node[1].wlan[0].mac.dcf packetDropNotAddressedToUs:sum(packetBytes) 2752
attr interpolationmode none
attr source packetDropReasonIsNotAddressedToUs(packetDropped)
attr title "packet drops: not addressed to us, sum(packetBytes)"
scalar RoutingScenario.node[1].wlan[0].mac.dcf packetDropQueueOverflow:count 0
attr interpolationmode none
attr source packetDropReasonIsQueueOverflow(packetDropped)
attr title "packet drops: queue overflow, count"
scalar RoutingScenario.node[1].wlan[0].mac.dcf packetDropQueueOverflow:sum(packetBytes) 0
attr interpolationmode none
attr source packetDropReasonIsQueueOverflow(packetDropped)
attr title "packet drops: queue overflow, sum(packetBytes)"
scalar RoutingScenario.node[1].wlan[0].mac.dcf packetDropRetryLimitReached:count 0
attr interpolationmode none
attr source packetDropReasonIsRetryLimitReached(packetDropped)
attr title "packet drops: retry limit reached, count"
scalar RoutingScenario.node[1].wlan[0].mac.dcf packetDropRetryLimitReached:sum(packetBytes) 0
attr interpolationmode none
attr source packetDropReasonIsRetryLimitReached(packetDropped)
attr title "packet drops: retry limit reached, sum(packetBytes)"
scalar RoutingScenario.node[1].wlan[0].mac.dcf linkBroken:count 0
attr interpolationmode none
attr title "link breaks, count"
scalar RoutingScenario.node[1].wlan[0].mac packetReceivedFromLower:count 155
attr interpolationmode none
attr title "packets received from lower layer, count"
scalar RoutingScenario.node[1].wlan[0].mac packetReceivedFromLower:sum(packetBytes) 10538
attr interpolationmode none
attr title "packets received from lower layer, sum(packetBytes)"
scalar RoutingScenario.node[1].wlan[0].mac packetSentToLower:count 22
attr interpolationmode none
attr title "packets sent to lower layer, count"
scalar RoutingScenario.node[1].wlan[0].mac packetSentToLower:sum(packetBytes) 1416
attr interpolationmode none
attr title "packets sent to lower layer, sum(packetBytes)"
scalar RoutingScenario.node[1].wlan[0].mac packetReceivedFromUpper:count 16
attr interpolationmode none
attr title "packets received from upper layer, count"
scalar RoutingScenario.node[1].wlan[0].mac packetReceivedFromUpper:sum(packetBytes) 840
attr interpolationmode none
attr title "packets received from upper layer, sum(packetBytes)"
scalar RoutingScenario.node[1].wlan[0].mac packetSentToUpper:count 77
attr interpolationmode none
attr title "packets sent to upper layer, count"
scalar RoutingScenario.node[1].wlan[0].mac packetSentToUpper:sum(packetBytes) 3970
attr interpolationmode none
attr title "packets sent to upper layer, sum(packetBytes)"
scalar RoutingScenario.node[1].wlan[0].mac packetDrop:count 77
attr interpolationmode none
attr source packetDropped
attr title "packet drops, count"
scalar RoutingScenario.node[1].wlan[0].mac packetDrop:sum(packetBytes) 4398
attr interpolationmode none
attr source packetDropped
attr title "packet drops, sum(packetBytes)"
scalar RoutingScenario.node[1].wlan[0].mac packetDropIncorrectlyReceived:count 21
attr interpolationmode none
attr source packetDropReasonIsIncorrectlyReceived(packetDropped)
attr title "packet drops: incorrectly received, count"
scalar RoutingScenario.node[1].wlan[0].mac packetDropIncorrectlyReceived:sum(packetBytes) 1646
attr interpolationmode none
attr source packetDropReasonIsIncorrectlyReceived(packetDropped)
attr title "packet drops: incorrectly received, sum(packetBytes)"
scalar RoutingScenario.node[1].wlan[0].mac packetDropNotAddressedToUs:count 56
attr interpolationmode none
attr source packetDropReasonIsNotAddressedToUs(packetDropped)
attr title "packet drops: not addressed to us, count"
scalar RoutingScenario.node[1].wlan[0].mac packetDropNotAddressedToUs:sum(packetBytes) 2752
attr interpolationmode none
attr source packetDropReasonIsNotAddressedToUs(packetDropped)
attr title "packet drops: not addressed to us, sum(packetBytes)"
scalar RoutingScenario.node[1].wlan[0].mac packetDropQueueOverflow:count 0
attr interpolationmode none
attr source packetDropReasonIsQueueOverflow(packetDropped)
attr title "packet drops: queue overflow, count"
scalar RoutingScenario.node[1].wlan[0].mac packetDropQueueOverflow:sum(packetBytes) 0
attr interpolationmode none
attr source packetDropReasonIsQueueOverflow(packetDropped)
attr title "packet drops: queue overflow, sum(packetBytes)"
scalar RoutingScenario.node[1].wlan[0].mac packetDropRetryLimitReached:count 0
attr interpolationmode none
attr source packetDropReasonIsRetryLimitReached(packetDropped)
attr title "packet drops: retry limit reached, count"
scalar RoutingScenario.node[1].wlan[0].mac packetDropRetryLimitReached:sum(packetBytes) 0
attr interpolationmode none
attr source packetDropReasonIsRetryLimitReached(packetDropped)
attr title "packet drops: retry limit reached, sum(packetBytes)"
scalar RoutingScenario.node[1].wlan[0].mac packetDropDuplicateDetected:count 0
attr interpolationmode none
attr source packetDropReasonIsDuplicateDetected(packetDropped)
attr title "packet drops: duplicate detected, count"
scalar RoutingScenario.node[1].wlan[0].mac packetDropDuplicateDetected:sum(packetBytes) 0
attr interpolationmode none
attr source packetDropReasonIsDuplicateDetected(packetDropped)
attr title "packet drops: duplicate detected, sum(packetBytes)"
scalar RoutingScenario.node[1].wlan[0].mac packetDropOther:count 0
attr interpolationmode none
attr source packetDropReasonIsOther(packetDropped)
attr title "packet drops: other, count"
scalar RoutingScenario.node[1].wlan[0].mac packetDropOther:sum(packetBytes) 0
attr interpolationmode none
attr source packetDropReasonIsOther(packetDropped)
attr title "packet drops: other, sum(packetBytes)"
scalar RoutingScenario.node[1].wlan[0].mac linkBroken:count 0
attr interpolationmode none
attr title "link breaks, count"
statistic RoutingScenario.node[1].wlan[0].radio radioChannel:histogram
field count 1
field mean 3
field stddev -nan
field min 3
field max 3
field sum 3
field sqrsum 9
attr interpolationmode sample-hold
attr source radioChannelChanged
attr title "Radio channel, histogram"
bin	-inf	0
bin	2	0
bin	3	1
bin	4	0
scalar RoutingScenario.node[1].wlan[0].radio radioMode:count 47
attr interpolationmode sample-hold
attr source radioModeChanged
attr title "Radio mode, count"
scalar RoutingScenario.node[1].wlan[0].radio receptionState:count 360
attr interpolationmode sample-hold
attr source receptionStateChanged
attr title "Radio reception state, count"
scalar RoutingScenario.node[1].wlan[0].radio transmissionState:count 88
attr interpolationmode sample-hold
attr source transmissionStateChanged
attr title "Radio transmission state, count"
statistic RoutingScenario.node[1].wlan[0].radio minSnir:histogram
field count 155
field mean 1499.3284360683
field stddev 2140.2820635582
field min 0.10627817441101
field max 9008.8072574527
field sum 232395.90759059
field sqrsum 1053882118.6612
attr source minimumSnir(packetSentToUpper)
attr title "Min SNIR, histogram"
bin	-inf	0
bin	0	28
bin	200	14
bin	400	45
bin	600	3
bin	800	17
bin	1000	0
bin	1200	4
bin	1400	11
bin	1600	2
bin	1800	0
bin	2000	5
bin	2200	0
bin	2400	0
bin	2600	0
bin	2800	0
bin	3000	3
bin	3200	0
bin	3400	0
bin	3600	0
bin	3800	0
bin	4000	0
bin	4200	0
bin	4400	6
bin	4600	1
bin	4800	0
bin	5000	0
bin	5200	0
bin	5400	3
bin	5600	1
bin	5800	1
bin	6000	0
bin	6200	0
bin	6400	0
bin	6600	5
bin	6800	0
bin	7000	0
bin	7200	0
bin	7400	0
bin	7600	0
bin	7800	2
bin	8000	2
bin	8200	0
bin	8400	0
bin	8600	1
bin	8800	0
bin	9000	1
bin	9200	0
bin	9400	0
bin	9600	0
bin	9800	0
bin	10000	0
bin	10200	0
bin	10400	0
bin	10600	0
bin	10800	0
bin	11000	0
bin	11200	0
bin	11400	0
statistic RoutingScenario.node[1].wlan[0].radio packetErrorRate:histogram
field count 155
field mean 0.13592350387748
field stddev 0.34142651909964
field min 0
field max 1
field sum 21.068143101009
field sqrsum 20.815754293934
attr source packetErrorRate(packetSentToUpper)
attr title "Packet error rate, histogram"
bin	-inf	0
bin	0	132
bin	0.02	0
bin	0.04	1
bin	0.06	1
bin	0.08	0
bin	0.1	0
bin	0.12	0
bin	0.14	0
bin	0.16	0
bin	0.18	0
bin	0.2	0
bin	0.22	0
bin	0.24	0
bin	0.26	0
bin	0.28	0
bin	0.3	0
bin	0.32	0
bin	0.34	0
bin	0.36	0
bin	0.38	0
bin	0.4	0
bin	0.42	0
bin	0.44	0
bin	0.46	0
bin	0.48	0
bin	0.5	0
bin	0.52	0
bin	0.54	0
bin	0.56	0
bin	0.58	0
bin	0.6	0
bin	0.62	0
bin	0.64	0
bin	0.66	0
bin	0.68	0
bin	0.7	0
bin	0.72	0
bin	0.74	0
bin	0.76	0
bin	0.78	0
bin	0.8	0
bin	0.82	0
bin	0.84	0
bin	0.86	0
bin	0.88	0
bin	0.9	0
bin	0.92	0
bin	0.94	2
bin	0.96	0
bin	0.98	4
bin	1	15
bin	1.02	0
bin	1.04	0
bin	1.06	0
bin	1.08	0
bin	1.1	0
bin	1.12	0
bin	1.14	0
bin	1.16	0
bin	1.18	0
bin	1.2	0
bin	1.22	0
bin	1.24	0
bin	1.26	0
statistic RoutingScenario.node[1].wlan[0].radio bitErrorRate:histogram
field count 0
field mean -nan
field stddev nan
field min nan
field max nan
field sum 0
field sqrsum 0
attr source bitErrorRate(packetSentToUpper)
attr title "Bit error rate, histogram"
bin	-inf	0
bin	0	0
bin	1	0
statistic RoutingScenario.node[1].wlan[0].radio symbolErrorRate:histogram
field count 0
field mean -nan
field stddev nan
field min nan
field max nan
field sum 0
field sqrsum 0
attr source symbolErrorRate(packetSentToUpper)
attr title "Symbol error rate, histogram"
bin	-inf	0
bin	0	0
bin	1	0
scalar RoutingScenario.node[1].ipv4.ip packetDropAddressResolutionFailed:count 0
attr interpolationmode none
attr source packetDropReasonIsAddressResolutionFailed(packetDropped)
attr title "packet drop: address resolution failed, count"
scalar RoutingScenario.node[1].ipv4.ip packetDropAddressResolutionFailed:sum(packetBytes) 0
attr interpolationmode none
attr source packetDropReasonIsAddressResolutionFailed(packetDropped)
attr title "packet drop: address resolution failed, sum(packetBytes)"
scalar RoutingScenario.node[1].ipv4.ip packetDropHopLimitReached:count 0
attr interpolationmode none
attr source packetDropReasonIsHopLimitReached(packetDropped)
attr title "packet drop: hop limit reached, count"
scalar RoutingScenario.node[1].ipv4.ip packetDropHopLimitReached:sum(packetBytes) 0
attr interpolationmode none
attr source packetDropReasonIsHopLimitReached(packetDropped)
attr title "packet drop: hop limit reached, sum(packetBytes)"
scalar RoutingScenario.node[1].ipv4.ip packetDropForwardingDisabled:count 0
attr interpolationmode none
attr source packetDropReasonIsForwardingDisabled(packetDropped)
attr title "packet drop: forwarding disabled, count"
scalar RoutingScenario.node[1].ipv4.ip packetDropForwardingDisabled:sum(packetBytes) 0
attr interpolationmode none
attr source packetDropReasonIsForwardingDisabled(packetDropped)
attr title "packet drop: forwarding disabled, sum(packetBytes)"
scalar RoutingScenario.node[1].ipv4.ip packetDropNoInterfaceFound:count 0
attr interpolationmode none
attr source packetDropReasonIsNoInterfaceFound(packetDropped)
attr title "packet drop: no interface found, count"
scalar RoutingScenario.node[1].ipv4.ip packetDropNoInterfaceFound:sum(packetBytes) 0
attr interpolationmode none
attr source packetDropReasonIsNoInterfaceFound(packetDropped)
attr title "packet drop: no interface found, sum(packetBytes)"
scalar RoutingScenario.node[1].ipv4.ip packetDropNoRouteFound:count 0
attr interpolationmode none
attr source packetDropReasonIsNoRouteFound(packetDropped)
attr title "packet drop: no route found, count"
scalar RoutingScenario.node[1].ipv4.ip packetDropNoRouteFound:sum(packetBytes) 0
attr interpolationmode none
attr source packetDropReasonIsNoRouteFound(packetDropped)
attr title "packet drop: no route found, sum(packetBytes)"
scalar RoutingScenario.node[1].ipv4.ip packetDropUndefined:count 0
attr interpolationmode none
attr source packetDropReasonIsUndefined(packetDropped)
attr title "packet drop: undefined, count"
scalar RoutingScenario.node[1].ipv4.ip packetDropUndefined:sum(packetBytes) 0
attr interpolationmode none
attr source packetDropReasonIsUndefined(packetDropped)
attr title "packet drop: undefined, sum(packetBytes)"
scalar RoutingScenario.node[1].ipv4.arp arpResolutionFailed:count 0
attr title "ARP failed resolutions, count"
scalar RoutingScenario.node[1].ipv4.arp arpResolutionCompleted:count 7
attr title "ARP completed resolutions, count"
scalar RoutingScenario.node[1].ipv4.arp arpResolutionInitiated:count 0
attr title "ARP initiated resolutions, count"
scalar RoutingScenario.node[1].ipv4.arp arpReplySent:count 1
attr source arpReplySent
attr title "ARP replies sent, count"
scalar RoutingScenario.node[1].ipv4.arp arpReplySent:sum(packetBytes) 28
attr source arpReplySent
attr title "ARP replies sent, sum(packetBytes)"
scalar RoutingScenario.node[1].ipv4.arp arpRequestSent:count 0
attr source arpRequestSent
attr title "ARP request sent, count"
scalar RoutingScenario.node[1].ipv4.arp arpRequestSent:sum(packetBytes) 0
attr source arpRequestSent
attr title "ARP request sent, sum(packetBytes)"
scalar RoutingScenario.node[1].udp packetReceived:count 70
attr interpolationmode none
attr source packetReceived
attr title "packets received, count"
scalar RoutingScenario.node[1].udp packetReceived:sum(packetBytes) 2220
attr interpolationmode none
attr source packetReceived
attr title "packets received, sum(packetBytes)"
scalar RoutingScenario.node[1].udp packetSent:count 1465
attr interpolationmode none
attr source packetSent
attr title "packets sent, count"
scalar RoutingScenario.node[1].udp packetSent:sum(packetBytes) 1462080
attr interpolationmode none
attr source packetSent
attr title "packets sent, sum(packetBytes)"
scalar RoutingScenario.node[1].udp passedUpPk:count 70
attr interpolationmode none
attr source packetSentToUpper
attr title "packets passed up, count"
scalar RoutingScenario.node[1].udp droppedPkWrongPort:count 0
attr interpolationmode none
attr source packetDropReasonIsNoPortFound(packetDropped)
attr title "packets dropped (wrong port), count"
scalar RoutingScenario.node[1].udp droppedPkBadChecksum:count 0
attr interpolationmode none
attr source packetDropReasonIsIncorrectlyReceived(packetDropped)
attr title "packets dropped (checksum error), count"
scalar RoutingScenario.node[1].app[0] "packets sent" 1450
scalar RoutingScenario.node[1].app[0] "packets received" 0
scalar RoutingScenario.node[1].app[0] packetReceived:count 0
attr interpolationmode none
attr source packetReceived
attr title "packets received, count"
scalar RoutingScenario.node[1].app[0] packetReceived:sum(packetBytes) 0
attr interpolationmode none
attr source packetReceived
attr title "packets received, sum(packetBytes)"
statistic RoutingScenario.node[1].app[0] rcvdPkLifetime:stats
field count 0
field mean -nan
field stddev nan
field min nan
field max nan
field sum 0
field sqrsum 0
attr interpolationmode none
attr source dataAge(packetReceived)
attr title "received packet lifetime, stats"
attr unit s
scalar RoutingScenario.node[1].app[0] packetSent:count 1450
attr interpolationmode none
attr source packetSent
attr title "packets sent, count"
scalar RoutingScenario.node[1].app[0] packetSent:sum(packetBytes) 1450000
attr interpolationmode none
attr source packetSent
attr title "packets sent, sum(packetBytes)"
scalar RoutingScenario.node[2].lo[0].lo rcvdPkFromHl:count 0
attr interpolationmode none
attr source packetReceivedFromUpper
attr title "packets received from higher layer, count"
scalar RoutingScenario.node[2].lo[0].lo rcvdPkFromHl:sum(packetBytes) 0
attr interpolationmode none
attr source packetReceivedFromUpper
attr title "packets received from higher layer, sum(packetBytes)"
scalar RoutingScenario.node[2].lo[0].lo passedUpPk:count 0
attr interpolationmode none
attr source packetSentToUpper
attr title "packets passed to higher layer, count"
scalar RoutingScenario.node[2].lo[0].lo passedUpPk:sum(packetBytes) 0
attr interpolationmode none
attr source packetSentToUpper
attr title "packets passed to higher layer, sum(packetBytes)"
scalar RoutingScenario.node[2].wlan[0].mac.dcf.channelAccess.pendingQueue packetPopped:count 11
attr interpolationmode none
attr title "packet popped, count"
scalar RoutingScenario.node[2].wlan[0].mac.dcf.channelAccess.pendingQueue packetPopped:sum(packetBytes) 902
attr interpolationmode none
attr title "packet popped, sum(packetBytes)"
statistic RoutingScenario.node[2].wlan[0].mac.dcf.channelAccess.pendingQueue queueingTime:histogram
field count 11
field mean 0
field stddev 0
field min 0
field max 0
field sum 0
field sqrsum 0
attr interpolationmode none
attr source queueingTime(packetPopped)
attr title "queueing times, histogram"
attr unit s
bin	-inf	0
bin	-0.5	0
bin	-0.48	0
bin	-0.46	0
bin	-0.44	0
bin	-0.42	0
bin	-0.4	0
bin	-0.38	0
bin	-0.36	0
bin	-0.34	0
bin	-0.32	0
bin	-0.3	0
bin	-0.28	0
bin	-0.26	0
bin	-0.24	0
bin	-0.22	0
bin	-0.2	0
bin	-0.18	0
bin	-0.16	0
bin	-0.14	0
bin	-0.12	0
bin	-0.1	0
bin	-0.08	0
bin	-0.06	0
bin	-0.04	0
bin	-0.02	0
bin	0	11
bin	0.02	0
bin	0.04	0
bin	0.06	0
bin	0.08	0
bin	0.1	0
bin	0.12	0
bin	0.14	0
bin	0.16	0
bin	0.18	0
bin	0.2	0
bin	0.22	0
bin	0.24	0
bin	0.26	0
bin	0.28	0
bin	0.3	0
bin	0.32	0
bin	0.34	0
bin	0.36	0
bin	0.38	0
bin	0.4	0
bin	0.42	0
bin	0.44	0
bin	0.46	0
bin	0.48	0
bin	0.5	0
scalar RoutingScenario.node[2].wlan[0].mac.dcf.channelAccess.pendingQueue queueLength:max 1
attr interpolationmode sample-hold
attr source "count(packetPushed) - count(packetPopped) - count(packetRemoved) - count(packetDropped)"
attr title "queue length, max"
scalar RoutingScenario.node[2].wlan[0].mac.dcf.channelAccess.pendingQueue queueLength:timeavg 0
attr interpolationmode sample-hold
attr source "count(packetPushed) - count(packetPopped) - count(packetRemoved) - count(packetDropped)"
attr title "queue length, timeavg"
scalar RoutingScenario.node[2].wlan[0].mac.dcf.channelAccess.pendingQueue packetPushed:count 11
attr interpolationmode none
attr title "packet pushed, count"
scalar RoutingScenario.node[2].wlan[0].mac.dcf.channelAccess.pendingQueue packetPushed:sum(packetBytes) 902
attr interpolationmode none
attr title "packet pushed, sum(packetBytes)"
scalar RoutingScenario.node[2].wlan[0].mac.dcf.channelAccess.pendingQueue packetDropQueueOverflow:count 0
attr interpolationmode none
attr source packetDropReasonIsQueueOverflow(packetDropped)
attr title "packet drops: queue overflow, count"
scalar RoutingScenario.node[2].wlan[0].mac.dcf.channelAccess.pendingQueue packetDropQueueOverflow:sum(packetBytes) 0
attr interpolationmode none
attr source packetDropReasonIsQueueOverflow(packetDropped)
attr title "packet drops: queue overflow, sum(packetBytes)"
scalar RoutingScenario.node[2].wlan[0].mac.dcf.channelAccess.pendingQueue packetRemoved:count 0
attr interpolationmode none
attr title "packets removed, count"
scalar RoutingScenario.node[2].wlan[0].mac.dcf.channelAccess.pendingQueue packetRemoved:sum(packetBytes) 0
attr interpolationmode none
attr title "packets removed, sum(packetBytes)"
statistic RoutingScenario.node[2].wlan[0].mac.dcf.channelAccess.inProgressFrames queueingTime:histogram
field count 11
field mean 0.000104
field stddev 0
field min 0.000104
field max 0.000104
field sum 0.001144
field sqrsum 1.18976e-07
attr interpolationmode none
attr source queueingTime(packetDequeued)
attr title "queueing times, histogram"
bin	-inf	0
bin	0	11
bin	0.01	0
bin	0.02	0
bin	0.03	0
bin	0.04	0
bin	0.05	0
bin	0.06	0
bin	0.07	0
bin	0.08	0
bin	0.09	0
bin	0.1	0
bin	0.11	0
bin	0.12	0
bin	0.13	0
bin	0.14	0
bin	0.15	0
bin	0.16	0
bin	0.17	0
bin	0.18	0
bin	0.19	0
bin	0.2	0
bin	0.21	0
bin	0.22	0
bin	0.23	0
bin	0.24	0
bin	0.25	0
bin	0.26	0
bin	0.27	0
bin	0.28	0
bin	0.29	0
bin	0.3	0
bin	0.31	0
bin	0.32	0
bin	0.33	0
bin	0.34	0
bin	0.35	0
bin	0.36	0
bin	0.37	0
bin	0.38	0
bin	0.39	0
bin	0.4	0
bin	0.41	0
bin	0.42	0
bin	0.43	0
bin	0.44	0
bin	0.45	0
bin	0.46	0
bin	0.47	0
bin	0.48	0
bin	0.49	0
bin	0.5	0
bin	0.51	0
scalar RoutingScenario.node[2].wlan[0].mac.dcf.channelAccess.inProgressFrames queueLength:max 1
attr interpolationmode sample-hold
attr source "count(packetEnqueued) - count(packetDequeued)"
attr title "queue length, max"
scalar RoutingScenario.node[2].wlan[0].mac.dcf.channelAccess.inProgressFrames queueLength:timeavg 6.4629389382926e-05
attr interpolationmode sample-hold
attr source "count(packetEnqueued) - count(packetDequeued)"
attr title "queue length, timeavg"
scalar RoutingScenario.node[2].wlan[0].mac.dcf.channelAccess.contention channelAccessGranted:count 11
attr title "channel access granted, count"
scalar RoutingScenario.node[2].wlan[0].mac.dcf.channelAccess.contention stateChanged:count 156
attr interpolationmode none
attr title "contention state changed, count"
scalar RoutingScenario.node[2].wlan[0].mac.dcf.channelAccess channelOwnershipChanged:count 22
attr interpolationmode sample-hold
attr title "channel ownership, count"
scalar RoutingScenario.node[2].wlan[0].mac.dcf.originatorMacDataService packetAggregated:count 0
attr title "packets aggregated, count"
scalar RoutingScenario.node[2].wlan[0].mac.dcf.originatorMacDataService packetFragmented:count 0
attr title "packets fragmented, count"
scalar RoutingScenario.node[2].wlan[0].mac.dcf.recipientMacDataService packetDeaggregated:count 0
attr title "packets deaggregated, count"
scalar RoutingScenario.node[2].wlan[0].mac.dcf.recipientMacDataService packetDefragmented:count 12
attr title "packets defragmented, count"
scalar RoutingScenario.node[2].wlan[0].mac.dcf.recipientMacDataService packetDropDuplicateDetected:count 0
attr interpolationmode none
attr source packetDropReasonIsDuplicateDetected(packetDropped)
attr title "packet drops: duplicate detected, count"
scalar RoutingScenario.node[2].wlan[0].mac.dcf.recipientMacDataService packetDropDuplicateDetected:sum(packetBytes) 0
attr interpolationmode none
attr source packetDropReasonIsDuplicateDetected(packetDropped)
attr title "packet drops: duplicate detected, sum(packetBytes)"
scalar RoutingScenario.node[2].wlan[0].mac.dcf.recoveryProcedure retryLimitReached:count 0
attr title "retry limit reached, count"
scalar RoutingScenario.node[2].wlan[0].mac.dcf frameSequenceFinished:count 11
attr title "finished frame sequences, count"
statistic RoutingScenario.node[2].wlan[0].mac.dcf frameSequenceDuration:histogram
field count 11
field mean 0.000104
field stddev 0
field min 0.000104
field max 0.000104
field sum 0.001144
field sqrsum 1.18976e-07
attr source frameSequenceDuration(frameSequenceFinished)
attr title "frame sequence durations, histogram"
bin	-inf	0
bin	0	11
bin	0.01	0
bin	0.02	0
bin	0.03	0
bin	0.04	0
bin	0.05	0
bin	0.06	0
bin	0.07	0
bin	0.08	0
bin	0.09	0
bin	0.1	0
bin	0.11	0
bin	0.12	0
bin	0.13	0
bin	0.14	0
bin	0.15	0
bin	0.16	0
bin	0.17	0
bin	0.18	0
bin	0.19	0
bin	0.2	0
bin	0.21	0
bin	0.22	0
bin	0.23	0
bin	0.24	0
bin	0.25	0
bin	0.26	0
bin	0.27	0
bin	0.28	0
bin	0.29	0
bin	0.3	0
bin	0.31	0
bin	0.32	0
bin	0.33	0
bin	0.34	0
bin	0.35	0
bin	0.36	0
bin	0.37	0
bin	0.38	0
bin	0.39	0
bin	0.4	0
bin	0.41	0
bin	0.42	0
bin	0.43	0
bin	0.44	0
bin	0.45	0
bin	0.46	0
bin	0.47	0
bin	0.48	0
bin	0.49	0
bin	0.5	0
bin	0.51	0
statistic RoutingScenario.node[2].wlan[0].mac.dcf frameSequenceNumPackets:histogram
field count 11
field mean 1
field stddev 0
field min 1
field max 1
field sum 11
field sqrsum 11
attr source frameSequenceNumPackets(frameSequenceFinished)
attr title "frame sequences: number of packets, histogram"
bin	-inf	0
bin	0	0
bin	1	11
bin	2	0
scalar RoutingScenario.node[2].wlan[0].mac.dcf packetReceivedFromPeer:count 12
attr interpolationmode none
attr title "packets received, count"
scalar RoutingScenario.node[2].wlan[0].mac.dcf packetReceivedFromPeer:sum(packetBytes) 984
attr interpolationmode none
attr title "packets received, sum(packetBytes)"
scalar RoutingScenario.node[2].wlan[0].mac.dcf packetReceivedFromPeerUnicast:count 0
attr interpolationmode none
attr source ieee80211Unicast(packetReceivedFromPeer)
attr title "packets received: unicast, count"
scalar RoutingScenario.node[2].wlan[0].mac.dcf packetReceivedFromPeerUnicast:sum(packetBytes) 0
attr interpolationmode none
attr source ieee80211Unicast(packetReceivedFromPeer)
attr title "packets received: unicast, sum(packetBytes)"
scalar RoutingScenario.node[2].wlan[0].mac.dcf packetReceivedFromPeerMulticast:count 12
attr interpolationmode none
attr source ieee80211Multicast(packetReceivedFromPeer)
attr title "packets received: multicast, count"
scalar RoutingScenario.node[2].wlan[0].mac.dcf packetReceivedFromPeerMulticast:sum(packetBytes) 984
attr interpolationmode none
attr source ieee80211Multicast(packetReceivedFromPeer)
attr title "packets received: multicast, sum(packetBytes)"
scalar RoutingScenario.node[2].wlan[0].mac.dcf packetReceivedFromPeerBroadcast:count 12
attr interpolationmode none
attr source ieee80211Broadcast(packetReceivedFromPeer)
attr title "packets received: broadcast, count"
scalar RoutingScenario.node[2].wlan[0].mac.dcf packetReceivedFromPeerBroadcast:sum(packetBytes) 984
attr interpolationmode none
attr source ieee80211Broadcast(packetReceivedFromPeer)
attr title "packets received: broadcast, sum(packetBytes)"
scalar RoutingScenario.node[2].wlan[0].mac.dcf packetReceivedFromPeerWithRetry:count 0
attr interpolationmode none
attr source ieee80211Retry(packetReceivedFromPeer)
attr title "packets received: with retry, count"
scalar RoutingScenario.node[2].wlan[0].mac.dcf packetReceivedFromPeerWithRetry:sum(packetBytes) 0
attr interpolationmode none
attr source ieee80211Retry(packetReceivedFromPeer)
attr title "packets received: with retry, sum(packetBytes)"
scalar RoutingScenario.node[2].wlan[0].mac.dcf packetReceivedFromPeerWithoutRetry:count 12
attr interpolationmode none
attr source ieee80211NotRetry(packetReceivedFromPeer)
attr title "packets received: without retry, count"
scalar RoutingScenario.node[2].wlan[0].mac.dcf packetReceivedFromPeerWithoutRetry:sum(packetBytes) 984
attr interpolationmode none
attr source ieee80211NotRetry(packetReceivedFromPeer)
attr title "packets received: without retry, sum(packetBytes)"
scalar RoutingScenario.node[2].wlan[0].mac.dcf packetSentToPeer:count 11
attr interpolationmode none
attr title "packets sent, count"
scalar RoutingScenario.node[2].wlan[0].mac.dcf packetSentToPeer:sum(packetBytes) 902
attr interpolationmode none
attr title "packets sent, sum(packetBytes)"
scalar RoutingScenario.node[2].wlan[0].mac.dcf packetSentToPeerUnicast:count 0
attr interpolationmode none
attr source ieee80211Unicast(packetSentToPeer)
attr title "packets sent: unicast, count"
scalar RoutingScenario.node[2].wlan[0].mac.dcf packetSentToPeerUnicast:sum(packetBytes) 0
attr interpolationmode none
attr source ieee80211Unicast(packetSentToPeer)
attr title "packets sent: unicast, sum(packetBytes)"
scalar RoutingScenario.node[2].wlan[0].mac.dcf packetSentToPeerMulticast:count 11
attr interpolationmode none
attr source ieee80211Multicast(packetSentToPeer)
attr title "packets sent: multicast, count"
scalar RoutingScenario.node[2].wlan[0].mac.dcf packetSentToPeerMulticast:sum(packetBytes) 902
attr interpolationmode none
attr source ieee80211Multicast(packetSentToPeer)
attr title "packets sent: multicast, sum(packetBytes)"
scalar RoutingScenario.node[2].wlan[0].mac.dcf packetSentToPeerBroadcast:count 11
attr interpolationmode none
attr source ieee80211Broadcast(packetSentToPeer)
attr title "packets sent: broadcast , count"
scalar RoutingScenario.node[2].wlan[0].mac.dcf packetSentToPeerBroadcast:sum(packetBytes) 902
attr interpolationmode none
attr source ieee80211Broadcast(packetSentToPeer)
attr title "packets sent: broadcast , sum(packetBytes)"
scalar RoutingScenario.node[2].wlan[0].mac.dcf packetSentToPeerWithRetry:count 0
attr interpolationmode none
attr source ieee80211Retry(packetSentToPeer)
attr title "packets sent: with retry, count"
scalar RoutingScenario.node[2].wlan[0].mac.dcf packetSentToPeerWithRetry:sum(packetBytes) 0
attr interpolationmode none
attr source ieee80211Retry(packetSentToPeer)
attr title "packets sent: with retry, sum(packetBytes)"
scalar RoutingScenario.node[2].wlan[0].mac.dcf packetSentToPeerWithoutRetry:count 11
attr interpolationmode none
attr source ieee80211NotRetry(packetSentToPeer)
attr title "packets sent: without retry, count"
scalar RoutingScenario.node[2].wlan[0].mac.dcf packetSentToPeerWithoutRetry:sum(packetBytes) 902
attr interpolationmode none
attr source ieee80211NotRetry(packetSentToPeer)
attr title "packets sent: without retry, sum(packetBytes)"
scalar RoutingScenario.node[2].wlan[0].mac.dcf packetDrop:count 2
attr interpolationmode none
attr source packetDropped
attr title "packet drops, count"
scalar RoutingScenario.node[2].wlan[0].mac.dcf packetDrop:sum(packetBytes) 72
attr interpolationmode none
attr source packetDropped
attr title "packet drops, sum(packetBytes)"
scalar RoutingScenario.node[2].wlan[0].mac.dcf packetDropNotAddressedToUs:count 2
attr interpolationmode none
attr source packetDropReasonIsNotAddressedToUs(packetDropped)
attr title "packet drops: not addressed to us, count"
scalar RoutingScenario.node[2].wlan[0].mac.dcf packetDropNotAddressedToUs:sum(packetBytes) 72
attr interpolationmode none
attr source packetDropReasonIsNotAddressedToUs(packetDropped)
attr title "packet drops: not addressed to us, sum(packetBytes)"
scalar RoutingScenario.node[2].wlan[0].mac.dcf packetDropQueueOverflow:count 0
attr interpolationmode none
attr source packetDropReasonIsQueueOverflow(packetDropped)
attr title "packet drops: queue overflow, count"
scalar RoutingScenario.node[2].wlan[0].mac.dcf packetDropQueueOverflow:sum(packetBytes) 0
attr interpolationmode none
attr source packetDropReasonIsQueueOverflow(packetDropped)
attr title "packet drops: queue overflow, sum(packetBytes)"
scalar RoutingScenario.node[2].wlan[0].mac.dcf packetDropRetryLimitReached:count 0
attr interpolationmode none
attr source packetDropReasonIsRetryLimitReached(packetDropped)
attr title "packet drops: retry limit reached, count"
scalar RoutingScenario.node[2].wlan[0].mac.dcf packetDropRetryLimitReached:sum(packetBytes) 0
attr interpolationmode none
attr source packetDropReasonIsRetryLimitReached(packetDropped)
attr title "packet drops: retry limit reached, sum(packetBytes)"
scalar RoutingScenario.node[2].wlan[0].mac.dcf linkBroken:count 0
attr interpolationmode none
attr title "link breaks, count"
scalar RoutingScenario.node[2].wlan[0].mac packetReceivedFromLower:count 15
attr interpolationmode none
attr title "packets received from lower layer, count"
scalar RoutingScenario.node[2].wlan[0].mac packetReceivedFromLower:sum(packetBytes) 1138
attr interpolationmode none
[...]
attr interpolationmode none
attr source ieee80211Unicast(packetReceivedFromPeer)
attr title "packets received: unicast, count"
scalar RoutingScenario.node[24].wlan[0].mac.dcf packetReceivedFromPeerUnicast:sum(packetBytes) 92
attr interpolationmode none
attr source ieee80211Unicast(packetReceivedFromPeer)
attr title "packets received: unicast, sum(packetBytes)"
scalar RoutingScenario.node[24].wlan[0].mac.dcf packetReceivedFromPeerMulticast:count 29
attr interpolationmode none
attr source ieee80211Multicast(packetReceivedFromPeer)
attr title "packets received: multicast, count"
scalar RoutingScenario.node[24].wlan[0].mac.dcf packetReceivedFromPeerMulticast:sum(packetBytes) 2354
attr interpolationmode none
attr source ieee80211Multicast(packetReceivedFromPeer)
attr title "packets received: multicast, sum(packetBytes)"
scalar RoutingScenario.node[24].wlan[0].mac.dcf packetReceivedFromPeerBroadcast:count 29
attr interpolationmode none
attr source ieee80211Broadcast(packetReceivedFromPeer)
attr title "packets received: broadcast, count"
scalar RoutingScenario.node[24].wlan[0].mac.dcf packetReceivedFromPeerBroadcast:sum(packetBytes) 2354
attr interpolationmode none
attr source ieee80211Broadcast(packetReceivedFromPeer)
attr title "packets received: broadcast, sum(packetBytes)"
scalar RoutingScenario.node[24].wlan[0].mac.dcf packetReceivedFromPeerWithRetry:count 0
attr interpolationmode none
attr source ieee80211Retry(packetReceivedFromPeer)
attr title "packets received: with retry, count"
scalar RoutingScenario.node[24].wlan[0].mac.dcf packetReceivedFromPeerWithRetry:sum(packetBytes) 0
attr interpolationmode none
attr source ieee80211Retry(packetReceivedFromPeer)
attr title "packets received: with retry, sum(packetBytes)"
scalar RoutingScenario.node[24].wlan[0].mac.dcf packetReceivedFromPeerWithoutRetry:count 31
attr interpolationmode none
attr source ieee80211NotRetry(packetReceivedFromPeer)
attr title "packets received: without retry, count"
scalar RoutingScenario.node[24].wlan[0].mac.dcf packetReceivedFromPeerWithoutRetry:sum(packetBytes) 2446
attr interpolationmode none
attr source ieee80211NotRetry(packetReceivedFromPeer)
attr title "packets received: without retry, sum(packetBytes)"
scalar RoutingScenario.node[24].wlan[0].mac.dcf packetSentToPeer:count 13
attr interpolationmode none
attr title "packets sent, count"
scalar RoutingScenario.node[24].wlan[0].mac.dcf packetSentToPeer:sum(packetBytes) 974
attr interpolationmode none
attr title "packets sent, sum(packetBytes)"
scalar RoutingScenario.node[24].wlan[0].mac.dcf packetSentToPeerUnicast:count 2
attr interpolationmode none
attr source ieee80211Unicast(packetSentToPeer)
attr title "packets sent: unicast, count"
scalar RoutingScenario.node[24].wlan[0].mac.dcf packetSentToPeerUnicast:sum(packetBytes) 72
attr interpolationmode none
attr source ieee80211Unicast(packetSentToPeer)
attr title "packets sent: unicast, sum(packetBytes)"
scalar RoutingScenario.node[24].wlan[0].mac.dcf packetSentToPeerMulticast:count 11
attr interpolationmode none
attr source ieee80211Multicast(packetSentToPeer)
attr title "packets sent: multicast, count"
scalar RoutingScenario.node[24].wlan[0].mac.dcf packetSentToPeerMulticast:sum(packetBytes) 902
attr interpolationmode none
attr source ieee80211Multicast(packetSentToPeer)
attr title "packets sent: multicast, sum(packetBytes)"
scalar RoutingScenario.node[24].wlan[0].mac.dcf packetSentToPeerBroadcast:count 11
attr interpolationmode none
attr source ieee80211Broadcast(packetSentToPeer)
attr title "packets sent: broadcast , count"
scalar RoutingScenario.node[24].wlan[0].mac.dcf packetSentToPeerBroadcast:sum(packetBytes) 902
attr interpolationmode none
attr source ieee80211Broadcast(packetSentToPeer)
attr title "packets sent: broadcast , sum(packetBytes)"
scalar RoutingScenario.node[24].wlan[0].mac.dcf packetSentToPeerWithRetry:count 0
attr interpolationmode none
attr source ieee80211Retry(packetSentToPeer)
attr title "packets sent: with retry, count"
scalar RoutingScenario.node[24].wlan[0].mac.dcf packetSentToPeerWithRetry:sum(packetBytes) 0
attr interpolationmode none
attr source ieee80211Retry(packetSentToPeer)
attr title "packets sent: with retry, sum(packetBytes)"
scalar RoutingScenario.node[24].wlan[0].mac.dcf packetSentToPeerWithoutRetry:count 13
attr interpolationmode none
attr source ieee80211NotRetry(packetSentToPeer)
attr title "packets sent: without retry, count"
scalar RoutingScenario.node[24].wlan[0].mac.dcf packetSentToPeerWithoutRetry:sum(packetBytes) 974
attr interpolationmode none
attr source ieee80211NotRetry(packetSentToPeer)
attr title "packets sent: without retry, sum(packetBytes)"
scalar RoutingScenario.node[24].wlan[0].mac.dcf packetDrop:count 0
attr interpolationmode none
attr source packetDropped
attr title "packet drops, count"
scalar RoutingScenario.node[24].wlan[0].mac.dcf packetDrop:sum(packetBytes) 0
attr interpolationmode none
attr source packetDropped
attr title "packet drops, sum(packetBytes)"
scalar RoutingScenario.node[24].wlan[0].mac.dcf packetDropNotAddressedToUs:count 0
attr interpolationmode none
attr source packetDropReasonIsNotAddressedToUs(packetDropped)
attr title "packet drops: not addressed to us, count"
scalar RoutingScenario.node[24].wlan[0].mac.dcf packetDropNotAddressedToUs:sum(packetBytes) 0
attr interpolationmode none
attr source packetDropReasonIsNotAddressedToUs(packetDropped)
attr title "packet drops: not addressed to us, sum(packetBytes)"
scalar RoutingScenario.node[24].wlan[0].mac.dcf packetDropQueueOverflow:count 0
attr interpolationmode none
attr source packetDropReasonIsQueueOverflow(packetDropped)
attr title "packet drops: queue overflow, count"
scalar RoutingScenario.node[24].wlan[0].mac.dcf packetDropQueueOverflow:sum(packetBytes) 0
attr interpolationmode none
attr source packetDropReasonIsQueueOverflow(packetDropped)
attr title "packet drops: queue overflow, sum(packetBytes)"
scalar RoutingScenario.node[24].wlan[0].mac.dcf packetDropRetryLimitReached:count 0
attr interpolationmode none
attr source packetDropReasonIsRetryLimitReached(packetDropped)
attr title "packet drops: retry limit reached, count"
scalar RoutingScenario.node[24].wlan[0].mac.dcf packetDropRetryLimitReached:sum(packetBytes) 0
attr interpolationmode none
attr source packetDropReasonIsRetryLimitReached(packetDropped)
attr title "packet drops: retry limit reached, sum(packetBytes)"
scalar RoutingScenario.node[24].wlan[0].mac.dcf linkBroken:count 0
attr interpolationmode none
attr title "link breaks, count"
scalar RoutingScenario.node[24].wlan[0].mac packetReceivedFromLower:count 32
attr interpolationmode none
attr title "packets received from lower layer, count"
scalar RoutingScenario.node[24].wlan[0].mac packetReceivedFromLower:sum(packetBytes) 2528
attr interpolationmode none
attr title "packets received from lower layer, sum(packetBytes)"
scalar RoutingScenario.node[24].wlan[0].mac packetSentToLower:count 13
attr interpolationmode none
attr title "packets sent to lower layer, count"
scalar RoutingScenario.node[24].wlan[0].mac packetSentToLower:sum(packetBytes) 974
attr interpolationmode none
attr title "packets sent to lower layer, sum(packetBytes)"
scalar RoutingScenario.node[24].wlan[0].mac packetReceivedFromUpper:count 12
attr interpolationmode none
attr title "packets received from upper layer, count"
scalar RoutingScenario.node[24].wlan[0].mac packetReceivedFromUpper:sum(packetBytes) 624
attr interpolationmode none
attr title "packets received from upper layer, sum(packetBytes)"
scalar RoutingScenario.node[24].wlan[0].mac packetSentToUpper:count 30
attr interpolationmode none
attr title "packets sent to upper layer, count"
scalar RoutingScenario.node[24].wlan[0].mac packetSentToUpper:sum(packetBytes) 1592
attr interpolationmode none
attr title "packets sent to upper layer, sum(packetBytes)"
scalar RoutingScenario.node[24].wlan[0].mac packetDrop:count 1
attr interpolationmode none
attr source packetDropped
attr title "packet drops, count"
scalar RoutingScenario.node[24].wlan[0].mac packetDrop:sum(packetBytes) 82
attr interpolationmode none
attr source packetDropped
attr title "packet drops, sum(packetBytes)"
scalar RoutingScenario.node[24].wlan[0].mac packetDropIncorrectlyReceived:count 1
attr interpolationmode none
attr source packetDropReasonIsIncorrectlyReceived(packetDropped)
attr title "packet drops: incorrectly received, count"
scalar RoutingScenario.node[24].wlan[0].mac packetDropIncorrectlyReceived:sum(packetBytes) 82
attr interpolationmode none
attr source packetDropReasonIsIncorrectlyReceived(packetDropped)
attr title "packet drops: incorrectly received, sum(packetBytes)"
scalar RoutingScenario.node[24].wlan[0].mac packetDropNotAddressedToUs:count 0
attr interpolationmode none
attr source packetDropReasonIsNotAddressedToUs(packetDropped)
attr title "packet drops: not addressed to us, count"
scalar RoutingScenario.node[24].wlan[0].mac packetDropNotAddressedToUs:sum(packetBytes) 0
attr interpolationmode none
attr source packetDropReasonIsNotAddressedToUs(packetDropped)
attr title "packet drops: not addressed to us, sum(packetBytes)"
scalar RoutingScenario.node[24].wlan[0].mac packetDropQueueOverflow:count 0
attr interpolationmode none
attr source packetDropReasonIsQueueOverflow(packetDropped)
attr title "packet drops: queue overflow, count"
scalar RoutingScenario.node[24].wlan[0].mac packetDropQueueOverflow:sum(packetBytes) 0
attr interpolationmode none
attr source packetDropReasonIsQueueOverflow(packetDropped)
attr title "packet drops: queue overflow, sum(packetBytes)"
scalar RoutingScenario.node[24].wlan[0].mac packetDropRetryLimitReached:count 0
attr interpolationmode none
attr source packetDropReasonIsRetryLimitReached(packetDropped)
attr title "packet drops: retry limit reached, count"
scalar RoutingScenario.node[24].wlan[0].mac packetDropRetryLimitReached:sum(packetBytes) 0
attr interpolationmode none
attr source packetDropReasonIsRetryLimitReached(packetDropped)
attr title "packet drops: retry limit reached, sum(packetBytes)"
scalar RoutingScenario.node[24].wlan[0].mac packetDropDuplicateDetected:count 0
attr interpolationmode none
attr source packetDropReasonIsDuplicateDetected(packetDropped)
attr title "packet drops: duplicate detected, count"
scalar RoutingScenario.node[24].wlan[0].mac packetDropDuplicateDetected:sum(packetBytes) 0
attr interpolationmode none
attr source packetDropReasonIsDuplicateDetected(packetDropped)
attr title "packet drops: duplicate detected, sum(packetBytes)"
scalar RoutingScenario.node[24].wlan[0].mac packetDropOther:count 0
attr interpolationmode none
attr source packetDropReasonIsOther(packetDropped)
attr title "packet drops: other, count"
scalar RoutingScenario.node[24].wlan[0].mac packetDropOther:sum(packetBytes) 0
attr interpolationmode none
attr source packetDropReasonIsOther(packetDropped)
attr title "packet drops: other, sum(packetBytes)"
scalar RoutingScenario.node[24].wlan[0].mac linkBroken:count 0
attr interpolationmode none
attr title "link breaks, count"
statistic RoutingScenario.node[24].wlan[0].radio radioChannel:histogram
field count 1
field mean 3
field stddev -nan
field min 3
field max 3
field sum 3
field sqrsum 9
attr interpolationmode sample-hold
attr source radioChannelChanged
attr title "Radio channel, histogram"
bin	-inf	0
bin	2	0
bin	3	1
bin	4	0
scalar RoutingScenario.node[24].wlan[0].radio radioMode:count 29
attr interpolationmode sample-hold
attr source radioModeChanged
attr title "Radio mode, count"
scalar RoutingScenario.node[24].wlan[0].radio receptionState:count 93
attr interpolationmode sample-hold
attr source receptionStateChanged
attr title "Radio reception state, count"
scalar RoutingScenario.node[24].wlan[0].radio transmissionState:count 52
attr interpolationmode sample-hold
attr source transmissionStateChanged
attr title "Radio transmission state, count"
statistic RoutingScenario.node[24].wlan[0].radio minSnir:histogram
field count 32
field mean 5894.3624839114
field stddev 12685.562387942
field min 2.9121714047527
field max 68994.406009674
field sum 188619.59948516
field sqrsum 6100420576.985
attr source minimumSnir(packetSentToUpper)
attr title "Min SNIR, histogram"
bin	-inf	0
bin	0	14
bin	1000	4
bin	2000	4
bin	3000	0
bin	4000	1
bin	5000	0
bin	6000	0
bin	7000	1
bin	8000	2
bin	9000	2
bin	10000	1
bin	11000	0
bin	12000	0
bin	13000	0
bin	14000	0
bin	15000	0
bin	16000	1
bin	17000	0
bin	18000	0
bin	19000	0
bin	20000	0
bin	21000	0
bin	22000	1
bin	23000	0
bin	24000	0
bin	25000	0
bin	26000	0
bin	27000	0
bin	28000	0
bin	29000	0
bin	30000	0
bin	31000	0
bin	32000	0
bin	33000	0
bin	34000	0
bin	35000	0
bin	36000	0
bin	37000	0
bin	38000	0
bin	39000	0
bin	40000	0
bin	41000	0
bin	42000	0
bin	43000	0
bin	44000	0
bin	45000	0
bin	46000	0
bin	47000	0
bin	48000	0
bin	49000	0
bin	50000	0
bin	51000	0
bin	52000	0
bin	53000	0
bin	54000	0
bin	55000	0
bin	56000	0
bin	57000	0
bin	58000	0
bin	59000	0
bin	60000	0
bin	61000	0
bin	62000	0
bin	63000	0
bin	64000	0
bin	65000	0
bin	66000	0
bin	67000	0
bin	68000	1
bin	69000	0
bin	70000	0
bin	71000	0
bin	72000	0
bin	73000	0
bin	74000	0
bin	75000	0
bin	76000	0
bin	77000	0
bin	78000	0
bin	79000	0
bin	80000	0
bin	81000	0
bin	82000	0
bin	83000	0
bin	84000	0
bin	85000	0
bin	86000	0
bin	87000	0
statistic RoutingScenario.node[24].wlan[0].radio packetErrorRate:histogram
field count 32
field mean 0.03125
field stddev 0.17677669529664
field min 0
field max 1
field sum 1
field sqrsum 1
attr source packetErrorRate(packetSentToUpper)
attr title "Packet error rate, histogram"
bin	-inf	0
bin	0	31
bin	1	1
bin	2	0
statistic RoutingScenario.node[24].wlan[0].radio bitErrorRate:histogram
field count 0
field mean -nan
field stddev nan
field min nan
field max nan
field sum 0
field sqrsum 0
attr source bitErrorRate(packetSentToUpper)
attr title "Bit error rate, histogram"
bin	-inf	0
bin	0	0
bin	1	0
statistic RoutingScenario.node[24].wlan[0].radio symbolErrorRate:histogram
field count 0
field mean -nan
field stddev nan
field min nan
field max nan
field sum 0
field sqrsum 0
attr source symbolErrorRate(packetSentToUpper)
attr title "Symbol error rate, histogram"
bin	-inf	0
bin	0	0
bin	1	0
scalar RoutingScenario.node[24].ipv4.ip packetDropAddressResolutionFailed:count 0
attr interpolationmode none
attr source packetDropReasonIsAddressResolutionFailed(packetDropped)
attr title "packet drop: address resolution failed, count"
scalar RoutingScenario.node[24].ipv4.ip packetDropAddressResolutionFailed:sum(packetBytes) 0
attr interpolationmode none
attr source packetDropReasonIsAddressResolutionFailed(packetDropped)
attr title "packet drop: address resolution failed, sum(packetBytes)"
scalar RoutingScenario.node[24].ipv4.ip packetDropHopLimitReached:count 0
attr interpolationmode none
attr source packetDropReasonIsHopLimitReached(packetDropped)
attr title "packet drop: hop limit reached, count"
scalar RoutingScenario.node[24].ipv4.ip packetDropHopLimitReached:sum(packetBytes) 0
attr interpolationmode none
attr source packetDropReasonIsHopLimitReached(packetDropped)
attr title "packet drop: hop limit reached, sum(packetBytes)"
scalar RoutingScenario.node[24].ipv4.ip packetDropForwardingDisabled:count 0
attr interpolationmode none
attr source packetDropReasonIsForwardingDisabled(packetDropped)
attr title "packet drop: forwarding disabled, count"
scalar RoutingScenario.node[24].ipv4.ip packetDropForwardingDisabled:sum(packetBytes) 0
attr interpolationmode none
attr source packetDropReasonIsForwardingDisabled(packetDropped)
attr title "packet drop: forwarding disabled, sum(packetBytes)"
scalar RoutingScenario.node[24].ipv4.ip packetDropNoInterfaceFound:count 0
attr interpolationmode none
attr source packetDropReasonIsNoInterfaceFound(packetDropped)
attr title "packet drop: no interface found, count"
scalar RoutingScenario.node[24].ipv4.ip packetDropNoInterfaceFound:sum(packetBytes) 0
attr interpolationmode none
attr source packetDropReasonIsNoInterfaceFound(packetDropped)
attr title "packet drop: no interface found, sum(packetBytes)"
scalar RoutingScenario.node[24].ipv4.ip packetDropNoRouteFound:count 0
attr interpolationmode none
attr source packetDropReasonIsNoRouteFound(packetDropped)
attr title "packet drop: no route found, count"
scalar RoutingScenario.node[24].ipv4.ip packetDropNoRouteFound:sum(packetBytes) 0
attr interpolationmode none
attr source packetDropReasonIsNoRouteFound(packetDropped)
attr title "packet drop: no route found, sum(packetBytes)"
scalar RoutingScenario.node[24].ipv4.ip packetDropUndefined:count 0
attr interpolationmode none
attr source packetDropReasonIsUndefined(packetDropped)
attr title "packet drop: undefined, count"
scalar RoutingScenario.node[24].ipv4.ip packetDropUndefined:sum(packetBytes) 0
attr interpolationmode none
attr source packetDropReasonIsUndefined(packetDropped)
attr title "packet drop: undefined, sum(packetBytes)"
scalar RoutingScenario.node[24].ipv4.arp arpResolutionFailed:count 0
attr title "ARP failed resolutions, count"
scalar RoutingScenario.node[24].ipv4.arp arpResolutionCompleted:count 1
attr title "ARP completed resolutions, count"
scalar RoutingScenario.node[24].ipv4.arp arpResolutionInitiated:count 0
attr title "ARP initiated resolutions, count"
scalar RoutingScenario.node[24].ipv4.arp arpReplySent:count 1
attr source arpReplySent
attr title "ARP replies sent, count"
scalar RoutingScenario.node[24].ipv4.arp arpReplySent:sum(packetBytes) 28
attr source arpReplySent
attr title "ARP replies sent, sum(packetBytes)"
scalar RoutingScenario.node[24].ipv4.arp arpRequestSent:count 0
attr source arpRequestSent
attr title "ARP request sent, count"
scalar RoutingScenario.node[24].ipv4.arp arpRequestSent:sum(packetBytes) 0
attr source arpRequestSent
attr title "ARP request sent, sum(packetBytes)"
scalar RoutingScenario.node[24].udp packetReceived:count 29
attr interpolationmode none
attr source packetReceived
attr title "packets received, count"
scalar RoutingScenario.node[24].udp packetReceived:sum(packetBytes) 924
attr interpolationmode none
attr source packetReceived
attr title "packets received, sum(packetBytes)"
scalar RoutingScenario.node[24].udp packetSent:count 1252
attr interpolationmode none
attr source packetSent
attr title "packets sent, count"
scalar RoutingScenario.node[24].udp packetSent:sum(packetBytes) 1251280
attr interpolationmode none
attr source packetSent
attr title "packets sent, sum(packetBytes)"
scalar RoutingScenario.node[24].udp passedUpPk:count 29
attr interpolationmode none
attr source packetSentToUpper
attr title "packets passed up, count"
scalar RoutingScenario.node[24].udp droppedPkWrongPort:count 0
attr interpolationmode none
attr source packetDropReasonIsNoPortFound(packetDropped)
attr title "packets dropped (wrong port), count"
scalar RoutingScenario.node[24].udp droppedPkBadChecksum:count 0
attr interpolationmode none
attr source packetDropReasonIsIncorrectlyReceived(packetDropped)
attr title "packets dropped (checksum error), count"
scalar RoutingScenario.node[24].app[0] "packets sent" 1241
scalar RoutingScenario.node[24].app[0] "packets received" 0
scalar RoutingScenario.node[24].app[0] packetReceived:count 0
attr interpolationmode none
attr source packetReceived
attr title "packets received, count"
scalar RoutingScenario.node[24].app[0] packetReceived:sum(packetBytes) 0
attr interpolationmode none
attr source packetReceived
attr title "packets received, sum(packetBytes)"
statistic RoutingScenario.node[24].app[0] rcvdPkLifetime:stats
field count 0
field mean -nan
field stddev nan
field min nan
field max nan
field sum 0
field sqrsum 0
attr interpolationmode none
attr source dataAge(packetReceived)
attr title "received packet lifetime, stats"
attr unit s
scalar RoutingScenario.node[24].app[0] packetSent:count 1241
attr interpolationmode none
attr source packetSent
attr title "packets sent, count"
scalar RoutingScenario.node[24].app[0] packetSent:sum(packetBytes) 1241000
attr interpolationmode none
attr source packetSent
attr title "packets sent, sum(packetBytes)"

