file 307706 1657704664                                          
version 2
run canvas-0-20220713-09:29:11-4049
attr configname canvas
attr datetime 20220713-09:29:11
attr experiment canvas
attr inifile omnetpp.ini
attr iterationvars ""
attr iterationvarsf ""
attr measurement ""
attr network RoutingScenario
attr processid 4049
attr repetition 0
attr replication #0
attr resultdir results
attr runnumber 0
attr seedset 0
param *.visualizer.*.obstacleLossVisualizer.displayIntersections true
param *.visualizer.*.obstacleLossVisualizer.displayFaceNormalVectors true
param *.visualizer.*.obstacleLossVisualizer.intersectionLineColor "\"yellow\""
param *.visualizer.*.mediumVisualizer.signalPropagationAnimationSpeed 500/3e8
param *.visualizer.*.mediumVisualizer.signalTransmissionAnimationSpeed 50000/3e8
param *.visualizer.*.mediumVisualizer.displaySignals true
param *.visualizer.canvasVisualizer.mediumVisualizer.displaySignalDepartures false
param *.visualizer.canvasVisualizer.mediumVisualizer.displaySignalArrivals false
param *.visualizer.*.physicalLinkVisualizer.displayLinks true
param *.visualizer.*.mobilityVisualizer.displayPositions true
param *.visualizer.*.mobilityVisualizer.displayOrientations true
param *.visualizer.*.mobilityVisualizer.displayVelocities true
param *.visualizer.*.mobilityVisualizer.displayMovementTrails true
param *.visualizer.*.mobilityVisualizer.moduleFilter "\"**.antenna.mobility\""
param *.node[*].router "\"AodvBase\""
param *.node[*].numApps 1
param *.node[*].app[0].typename "\"UdpBasicApp\""
param *.node[*].app[0].destAddresses "\"node[*]\""
param *.node[*].app[0].destPort 5000
param *.node[*].app[0].messageLength 1000B
param *.node[*].app[0].sendInterval exponential(12ms)
param *.node[*].app[0].packetName "\"UDPData\""
param *.node[*].wlan[0].opMode "\"p\""
param *.node[*].wlan[0].radio.bandName "\"5.9 GHz\""
param *.node[*].wlan[0].radio.channelNumber 3
param *.node[*].wlan[0].radio.transmitter.power 20mW
param *.node[*].wlan[0].radio.bandwidth "10 MHz"
param *.node[*].ipv4.configurator.typename "\"HostAutoConfigurator\""
param *.node[*].ipv4.configurator.interfaces "\"wlan0\""
param *.node[*].ipv4.configurator.mcastGroups "\"224.0.0.1\""
param *.node[*].mobility.typename "\"VeinsInetMobility\""
param *.node[*].mobility.speed 20mps
param *.manager.updateInterval 0.1s
param *.manager.host "\"localhost\""
param *.manager.port 9999
param *.manager.autoShutdown true
param *.manager.launchConfig "xmldoc(\"bari.launchd.xml\")"
param *.manager.moduleType "\"vanetnetsec.veins_inet.VeinsInetRoutingCar\""
param *.physicalEnvironment.config "xmldoc(\"obstacles.xml\")"
param *.radioMedium.obstacleLoss.typename "\"IdealObstacleLoss\""

vector 0 RoutingScenario.node[0].wlan[0].radio radioMode:vector ETV
attr interpolationmode sample-hold
attr source radioModeChanged
attr title "Radio mode, vector"
vector 1 RoutingScenario.node[0].wlan[0].radio radioChannel:vector ETV
attr interpolationmode sample-hold
attr source radioChannelChanged
attr title "Radio channel, vector"
vector 2 RoutingScenario.node[0].wlan[0].radio receptionState:vector ETV
attr interpolationmode sample-hold
attr source receptionStateChanged
attr title "Radio reception state, vector"
vector 3 RoutingScenario.node[0].wlan[0].mac.dcf.recoveryProcedure contentionWindowChanged:vector ETV
attr interpolationmode sample-hold
attr title "contention window, vector"
vector 4 RoutingScenario.node[0].app[0] packetSent:vector(packetBytes) ETV
attr interpolationmode none
attr source packetSent
attr title "packets sent, vector(packetBytes)"
vector 5 RoutingScenario.node[0].udp packetSent:vector(packetBytes) ETV
attr interpolationmode none
attr source packetSent
attr title "packets sent, vector(packetBytes)"
vector 6 RoutingScenario.node[0].lo[0].lo rcvdPkFromHl:vector(packetBytes) ETV
attr interpolationmode none
attr source packetReceivedFromUpper
attr title "packets received from higher layer, vector(packetBytes)"
vector 7 RoutingScenario.node[0].lo[0].lo passedUpPk:vector(packetBytes) ETV
attr interpolationmode none
attr source packetSentToUpper
attr title "packets passed to higher layer, vector(packetBytes)"
vector 8 RoutingScenario.node[0].udp packetReceived:vector(packetBytes) ETV
attr interpolationmode none
attr source packetReceived
attr title "packets received, vector(packetBytes)"
vector 9 RoutingScenario.node[0].udp droppedPkWrongPort:vector(count) ETV
attr interpolationmode none
attr source packetDropReasonIsNoPortFound(packetDropped)
attr title "packets dropped (wrong port), vector(count)"
vector 10 RoutingScenario.node[1].wlan[0].radio radioMode:vector ETV
attr interpolationmode sample-hold
attr source radioModeChanged
attr title "Radio mode, vector"
vector 11 RoutingScenario.node[1].wlan[0].radio radioChannel:vector ETV
attr interpolationmode sample-hold
attr source radioChannelChanged
attr title "Radio channel, vector"
vector 12 RoutingScenario.node[1].wlan[0].radio receptionState:vector ETV
attr interpolationmode sample-hold
attr source receptionStateChanged
attr title "Radio reception state, vector"
vector 13 RoutingScenario.node[1].wlan[0].mac.dcf.recoveryProcedure contentionWindowChanged:vector ETV
attr interpolationmode sample-hold
attr title "contention window, vector"
vector 14 RoutingScenario.node[2].wlan[0].radio radioMode:vector ETV
attr interpolationmode sample-hold
attr source radioModeChanged
attr title "Radio mode, vector"
vector 15 RoutingScenario.node[2].wlan[0].radio radioChannel:vector ETV
attr interpolationmode sample-hold
attr source radioChannelChanged
attr title "Radio channel, vector"
vector 16 RoutingScenario.node[2].wlan[0].radio receptionState:vector ETV
attr interpolationmode sample-hold
attr source receptionStateChanged
attr title "Radio reception state, vector"
vector 17 RoutingScenario.node[2].wlan[0].mac.dcf.recoveryProcedure contentionWindowChanged:vector ETV
attr interpolationmode sample-hold
attr title "contention window, vector"
vector 18 RoutingScenario.node[3].wlan[0].radio radioMode:vector ETV
attr interpolationmode sample-hold
attr source radioModeChanged
attr title "Radio mode, vector"
vector 19 RoutingScenario.node[3].wlan[0].radio radioChannel:vector ETV
attr interpolationmode sample-hold
attr source radioChannelChanged
attr title "Radio channel, vector"
vector 20 RoutingScenario.node[3].wlan[0].radio receptionState:vector ETV
attr interpolationmode sample-hold
attr source receptionStateChanged
attr title "Radio reception state, vector"
vector 21 RoutingScenario.node[3].wlan[0].mac.dcf.recoveryProcedure contentionWindowChanged:vector ETV
attr interpolationmode sample-hold
attr title "contention window, vector"
vector 22 RoutingScenario.node[4].wlan[0].radio radioMode:vector ETV
attr interpolationmode sample-hold
attr source radioModeChanged
attr title "Radio mode, vector"
vector 23 RoutingScenario.node[4].wlan[0].radio radioChannel:vector ETV
attr interpolationmode sample-hold
attr source radioChannelChanged
attr title "Radio channel, vector"
vector 24 RoutingScenario.node[4].wlan[0].radio receptionState:vector ETV
attr interpolationmode sample-hold
attr source receptionStateChanged
attr title "Radio reception state, vector"
vector 25 RoutingScenario.node[4].wlan[0].mac.dcf.recoveryProcedure contentionWindowChanged:vector ETV
attr interpolationmode sample-hold
attr title "contention window, vector"
vector 26 RoutingScenario.node[5].wlan[0].radio radioMode:vector ETV
attr interpolationmode sample-hold
attr source radioModeChanged
attr title "Radio mode, vector"
vector 27 RoutingScenario.node[5].wlan[0].radio radioChannel:vector ETV
attr interpolationmode sample-hold
attr source radioChannelChanged
attr title "Radio channel, vector"
vector 28 RoutingScenario.node[5].wlan[0].radio receptionState:vector ETV
attr interpolationmode sample-hold
attr source receptionStateChanged
attr title "Radio reception state, vector"
vector 29 RoutingScenario.node[5].wlan[0].mac.dcf.recoveryProcedure contentionWindowChanged:vector ETV
attr interpolationmode sample-hold
attr title "contention window, vector"
vector 30 RoutingScenario.node[6].wlan[0].radio radioMode:vector ETV
attr interpolationmode sample-hold
attr source radioModeChanged
attr title "Radio mode, vector"
vector 31 RoutingScenario.node[6].wlan[0].radio radioChannel:vector ETV
attr interpolationmode sample-hold
attr source radioChannelChanged
attr title "Radio channel, vector"
vector 32 RoutingScenario.node[6].wlan[0].radio receptionState:vector ETV
attr interpolationmode sample-hold
attr source receptionStateChanged
attr title "Radio reception state, vector"
vector 33 RoutingScenario.node[6].wlan[0].mac.dcf.recoveryProcedure contentionWindowChanged:vector ETV
attr interpolationmode sample-hold
attr title "contention window, vector"
vector 34 RoutingScenario.node[7].wlan[0].radio radioMode:vector ETV
attr interpolationmode sample-hold
attr source radioModeChanged
attr title "Radio mode, vector"
vector 35 RoutingScenario.node[7].wlan[0].radio radioChannel:vector ETV
attr interpolationmode sample-hold
attr source radioChannelChanged
attr title "Radio channel, vector"
vector 36 RoutingScenario.node[7].wlan[0].radio receptionState:vector ETV
attr interpolationmode sample-hold
attr source receptionStateChanged
attr title "Radio reception state, vector"
vector 37 RoutingScenario.node[7].wlan[0].mac.dcf.recoveryProcedure contentionWindowChanged:vector ETV
attr interpolationmode sample-hold
attr title "contention window, vector"
vector 38 RoutingScenario.node[8].wlan[0].radio radioMode:vector ETV
attr interpolationmode sample-hold
attr source radioModeChanged
attr title "Radio mode, vector"
vector 39 RoutingScenario.node[8].wlan[0].radio radioChannel:vector ETV
attr interpolationmode sample-hold
attr source radioChannelChanged
attr title "Radio channel, vector"
vector 40 RoutingScenario.node[8].wlan[0].radio receptionState:vector ETV
attr interpolationmode sample-hold
attr source receptionStateChanged
attr title "Radio reception state, vector"
vector 41 RoutingScenario.node[8].wlan[0].mac.dcf.recoveryProcedure contentionWindowChanged:vector ETV
attr interpolationmode sample-hold
attr title "contention window, vector"
vector 42 RoutingScenario.node[9].wlan[0].radio radioMode:vector ETV
attr interpolationmode sample-hold
attr source radioModeChanged
attr title "Radio mode, vector"
vector 43 RoutingScenario.node[9].wlan[0].radio radioChannel:vector ETV
attr interpolationmode sample-hold
attr source radioChannelChanged
attr title "Radio channel, vector"
vector 44 RoutingScenario.node[9].wlan[0].radio receptionState:vector ETV
attr interpolationmode sample-hold
attr source receptionStateChanged
attr title "Radio reception state, vector"
vector 45 RoutingScenario.node[9].wlan[0].mac.dcf.recoveryProcedure contentionWindowChanged:vector ETV
attr interpolationmode sample-hold
attr title "contention window, vector"
vector 46 RoutingScenario.node[10].wlan[0].radio radioMode:vector ETV
attr interpolationmode sample-hold
attr source radioModeChanged
attr title "Radio mode, vector"
vector 47 RoutingScenario.node[10].wlan[0].radio radioChannel:vector ETV
attr interpolationmode sample-hold
attr source radioChannelChanged
attr title "Radio channel, vector"
vector 48 RoutingScenario.node[10].wlan[0].radio receptionState:vector ETV
attr interpolationmode sample-hold
attr source receptionStateChanged
attr title "Radio reception state, vector"
vector 49 RoutingScenario.node[10].wlan[0].mac.dcf.recoveryProcedure contentionWindowChanged:vector ETV
attr interpolationmode sample-hold
attr title "contention window, vector"
vector 50 RoutingScenario.node[1].app[0] packetSent:vector(packetBytes) ETV
attr interpolationmode none
attr source packetSent
attr title "packets sent, vector(packetBytes)"
vector 51 RoutingScenario.node[2].app[0] packetSent:vector(packetBytes) ETV
attr interpolationmode none
attr source packetSent
attr title "packets sent, vector(packetBytes)"
vector 52 RoutingScenario.node[3].app[0] packetSent:vector(packetBytes) ETV
attr interpolationmode none
attr source packetSent
attr title "packets sent, vector(packetBytes)"
vector 53 RoutingScenario.node[4].app[0] packetSent:vector(packetBytes) ETV
attr interpolationmode none
attr source packetSent
attr title "packets sent, vector(packetBytes)"
vector 54 RoutingScenario.node[5].app[0] packetSent:vector(packetBytes) ETV
attr interpolationmode none
attr source packetSent
attr title "packets sent, vector(packetBytes)"
vector 55 RoutingScenario.node[6].app[0] packetSent:vector(packetBytes) ETV
attr interpolationmode none
attr source packetSent
attr title "packets sent, vector(packetBytes)"
vector 56 RoutingScenario.node[7].app[0] packetSent:vector(packetBytes) ETV
attr interpolationmode none
attr source packetSent
attr title "packets sent, vector(packetBytes)"
vector 57 RoutingScenario.node[8].app[0] packetSent:vector(packetBytes) ETV
attr interpolationmode none
attr source packetSent
attr title "packets sent, vector(packetBytes)"
vector 58 RoutingScenario.node[9].app[0] packetSent:vector(packetBytes) ETV
attr interpolationmode none
attr source packetSent
attr title "packets sent, vector(packetBytes)"
vector 59 RoutingScenario.node[10].app[0] packetSent:vector(packetBytes) ETV
attr interpolationmode none
attr source packetSent
attr title "packets sent, vector(packetBytes)"
vector 60 RoutingScenario.node[1].udp packetSent:vector(packetBytes) ETV
attr interpolationmode none
attr source packetSent
attr title "packets sent, vector(packetBytes)"
vector 61 RoutingScenario.node[2].udp packetSent:vector(packetBytes) ETV
attr interpolationmode none
attr source packetSent
attr title "packets sent, vector(packetBytes)"
vector 62 RoutingScenario.node[3].udp packetSent:vector(packetBytes) ETV
attr interpolationmode none
attr source packetSent
attr title "packets sent, vector(packetBytes)"
vector 63 RoutingScenario.node[4].udp packetSent:vector(packetBytes) ETV
attr interpolationmode none
attr source packetSent
attr title "packets sent, vector(packetBytes)"
vector 64 RoutingScenario.node[5].udp packetSent:vector(packetBytes) ETV
attr interpolationmode none
attr source packetSent
attr title "packets sent, vector(packetBytes)"
vector 65 RoutingScenario.node[6].udp packetSent:vector(packetBytes) ETV
attr interpolationmode none
attr source packetSent
attr title "packets sent, vector(packetBytes)"
vector 66 RoutingScenario.node[7].udp packetSent:vector(packetBytes) ETV
attr interpolationmode none
attr source packetSent
attr title "packets sent, vector(packetBytes)"
vector 67 RoutingScenario.node[8].udp packetSent:vector(packetBytes) ETV
attr interpolationmode none
attr source packetSent
attr title "packets sent, vector(packetBytes)"
vector 68 RoutingScenario.node[9].udp packetSent:vector(packetBytes) ETV
attr interpolationmode none
attr source packetSent
attr title "packets sent, vector(packetBytes)"
vector 69 RoutingScenario.node[10].udp packetSent:vector(packetBytes) ETV
attr interpolationmode none
attr source packetSent
attr title "packets sent, vector(packetBytes)"
vector 70 RoutingScenario.node[2].wlan[0].mac packetReceivedFromUpper:vector(packetBytes) ETV
attr interpolationmode none
attr title "packets received from upper layer, vector(packetBytes)"
vector 71 RoutingScenario.node[2].wlan[0].mac.dcf.channelAccess.pendingQueue packetPushed:vector(packetBytes) ETV
attr interpolationmode none
attr title "packet pushed, vector(packetBytes)"
vector 72 RoutingScenario.node[2].wlan[0].mac.dcf.channelAccess.pendingQueue queueLength:vector ETV
attr interpolationmode sample-hold
attr source "count(packetPushed) - count(packetPopped) - count(packetRemoved) - count(packetDropped)"
attr title "queue length, vector"
vector 73 RoutingScenario.node[2].wlan[0].mac.dcf.channelAccess.contention backoffPeriodGenerated:vector ETV
attr interpolationmode none
attr title "backoff periods, vector"
vector 74 RoutingScenario.node[2].wlan[0].mac.dcf.channelAccess.contention backoffActive:vector ETV
attr interpolationmode sample-hold
attr source count(backoffStarted)-count(backoffStopped)
attr title "backoff active, vector"
vector 75 RoutingScenario.node[2].wlan[0].mac.dcf.channelAccess.pendingQueue packetPopped:vector(packetBytes) ETV
attr interpolationmode none
attr title "packet popped, vector(packetBytes)"
vector 76 RoutingScenario.node[2].wlan[0].mac.dcf.channelAccess.pendingQueue queueingTime:vector ETV
attr interpolationmode none
attr source queueingTime(packetPopped)
attr title "queueing times, vector"
attr unit s
vector 77 RoutingScenario.node[2].wlan[0].mac.dcf.channelAccess.inProgressFrames queueLength:vector ETV
attr interpolationmode sample-hold
attr source "count(packetEnqueued) - count(packetDequeued)"
attr title "queue length, vector"
vector 78 RoutingScenario.node[2].wlan[0].mac.dcf datarateSelected:vector ETV
attr interpolationmode none
attr title "datarates selected, vector"
vector 79 RoutingScenario.node[2].wlan[0].mac packetSentToLower:vector(packetBytes) ETV
attr interpolationmode none
attr title "packets sent to lower layer, vector(packetBytes)"
vector 80 RoutingScenario.node[2].wlan[0].mac.dcf frameSequenceActive:vector ETV
attr interpolationmode sample-hold
attr source count(frameSequenceStarted)-count(frameSequenceFinished)
attr title "frame sequence active, vector"
vector 81 RoutingScenario.node[2].wlan[0].radio transmissionState:vector ETV
attr interpolationmode sample-hold
attr source transmissionStateChanged
attr title "Radio transmission state, vector"
vector 82 RoutingScenario.node[2].wlan[0].mac.dcf packetSentToPeer:vector(packetBytes) ETV
attr interpolationmode none
attr title "packets sent, vector(packetBytes)"
vector 83 RoutingScenario.node[2].wlan[0].mac.dcf packetSentToPeerMulticast:vector(packetBytes) ETV
attr interpolationmode none
attr source ieee80211Multicast(packetSentToPeer)
attr title "packets sent: multicast, vector(packetBytes)"
vector 84 RoutingScenario.node[2].wlan[0].mac.dcf packetSentToPeerBroadcast:vector(packetBytes) ETV
attr interpolationmode none
attr source ieee80211Broadcast(packetSentToPeer)
attr title "packets sent: broadcast , vector(packetBytes)"
vector 85 RoutingScenario.node[2].wlan[0].mac.dcf packetSentToPeerWithoutRetry:vector(packetBytes) ETV
attr interpolationmode none
attr source ieee80211NotRetry(packetSentToPeer)
attr title "packets sent: without retry, vector(packetBytes)"
vector 86 RoutingScenario.node[2].wlan[0].mac.dcf.channelAccess.inProgressFrames queueingTime:vector ETV
attr interpolationmode none
attr source queueingTime(packetDequeued)
attr title "queueing times, vector"
vector 87 RoutingScenario.node[6].wlan[0].mac packetReceivedFromUpper:vector(packetBytes) ETV
attr interpolationmode none
attr title "packets received from upper layer, vector(packetBytes)"
vector 88 RoutingScenario.node[6].wlan[0].mac.dcf.channelAccess.pendingQueue packetPushed:vector(packetBytes) ETV
attr interpolationmode none
attr title "packet pushed, vector(packetBytes)"
vector 89 RoutingScenario.node[6].wlan[0].mac.dcf.channelAccess.pendingQueue queueLength:vector ETV
attr interpolationmode sample-hold
attr source "count(packetPushed) - count(packetPopped) - count(packetRemoved) - count(packetDropped)"
attr title "queue length, vector"
vector 90 RoutingScenario.node[6].wlan[0].mac.dcf.channelAccess.contention backoffPeriodGenerated:vector ETV
attr interpolationmode none
attr title "backoff periods, vector"
vector 91 RoutingScenario.node[6].wlan[0].mac.dcf.channelAccess.contention backoffActive:vector ETV
attr interpolationmode sample-hold
attr source count(backoffStarted)-count(backoffStopped)
attr title "backoff active, vector"
vector 92 RoutingScenario.node[6].wlan[0].mac.dcf.channelAccess.pendingQueue packetPopped:vector(packetBytes) ETV
attr interpolationmode none
attr title "packet popped, vector(packetBytes)"
vector 93 RoutingScenario.node[6].wlan[0].mac.dcf.channelAccess.pendingQueue queueingTime:vector ETV
attr interpolationmode none
attr source queueingTime(packetPopped)
attr title "queueing times, vector"
attr unit s
vector 94 RoutingScenario.node[6].wlan[0].mac.dcf.channelAccess.inProgressFrames queueLength:vector ETV
attr interpolationmode sample-hold
attr source "count(packetEnqueued) - count(packetDequeued)"
attr title "queue length, vector"
vector 95 RoutingScenario.node[6].wlan[0].mac.dcf datarateSelected:vector ETV
attr interpolationmode none
attr title "datarates selected, vector"
vector 96 RoutingScenario.node[6].wlan[0].mac packetSentToLower:vector(packetBytes) ETV
attr interpolationmode none
attr title "packets sent to lower layer, vector(packetBytes)"
vector 97 RoutingScenario.node[6].wlan[0].mac.dcf frameSequenceActive:vector ETV
attr interpolationmode sample-hold
attr source count(frameSequenceStarted)-count(frameSequenceFinished)
attr title "frame sequence active, vector"
vector 98 RoutingScenario.node[6].wlan[0].radio transmissionState:vector ETV
attr interpolationmode sample-hold
attr source transmissionStateChanged
attr title "Radio transmission state, vector"
vector 99 RoutingScenario.node[6].wlan[0].mac.dcf packetSentToPeer:vector(packetBytes) ETV
attr interpolationmode none
attr title "packets sent, vector(packetBytes)"
vector 100 RoutingScenario.node[6].wlan[0].mac.dcf packetSentToPeerMulticast:vector(packetBytes) ETV
attr interpolationmode none
attr source ieee80211Multicast(packetSentToPeer)
attr title "packets sent: multicast, vector(packetBytes)"
vector 101 RoutingScenario.node[6].wlan[0].mac.dcf packetSentToPeerBroadcast:vector(packetBytes) ETV
attr interpolationmode none
attr source ieee80211Broadcast(packetSentToPeer)
attr title "packets sent: broadcast , vector(packetBytes)"
vector 102 RoutingScenario.node[6].wlan[0].mac.dcf packetSentToPeerWithoutRetry:vector(packetBytes) ETV
attr interpolationmode none
attr source ieee80211NotRetry(packetSentToPeer)
attr title "packets sent: without retry, vector(packetBytes)"
vector 103 RoutingScenario.node[6].wlan[0].mac.dcf.channelAccess.inProgressFrames queueingTime:vector ETV
attr interpolationmode none
attr source queueingTime(packetDequeued)
attr title "queueing times, vector"
vector 104 RoutingScenario.node[9].wlan[0].mac packetReceivedFromLower:vector(packetBytes) ETV
attr interpolationmode none
attr title "packets received from lower layer, vector(packetBytes)"
vector 105 RoutingScenario.node[9].wlan[0].mac.dcf packetReceivedFromPeer:vector(packetBytes) ETV
attr interpolationmode none
attr title "packets received, vector(packetBytes)"
vector 106 RoutingScenario.node[9].wlan[0].mac.dcf packetReceivedFromPeerMulticast:vector(packetBytes) ETV
attr interpolationmode none
attr source ieee80211Multicast(packetReceivedFromPeer)
attr title "packets received: multicast, vector(packetBytes)"
vector 107 RoutingScenario.node[9].wlan[0].mac.dcf packetReceivedFromPeerBroadcast:vector(packetBytes) ETV
attr interpolationmode none
attr source ieee80211Broadcast(packetReceivedFromPeer)
attr title "packets received: broadcast, vector(packetBytes)"
vector 108 RoutingScenario.node[9].wlan[0].mac.dcf packetReceivedFromPeerWithoutRetry:vector(packetBytes) ETV
attr interpolationmode none
attr source ieee80211NotRetry(packetReceivedFromPeer)
attr title "packets received: without retry, vector(packetBytes)"
vector 109 RoutingScenario.node[9].wlan[0].mac packetSentToUpper:vector(packetBytes) ETV
attr interpolationmode none
attr title "packets sent to upper layer, vector(packetBytes)"
vector 110 RoutingScenario.node[9].udp packetReceived:vector(packetBytes) ETV
attr interpolationmode none
attr source packetReceived
attr title "packets received, vector(packetBytes)"
vector 111 RoutingScenario.node[9].udp passedUpPk:vector(count) ETV
attr interpolationmode none
attr source packetSentToUpper
attr title "packets passed up, vector(count)"
vector 112 RoutingScenario.node[10].wlan[0].mac packetReceivedFromUpper:vector(packetBytes) ETV
attr interpolationmode none
attr title "packets received from upper layer, vector(packetBytes)"
vector 113 RoutingScenario.node[10].wlan[0].mac.dcf.channelAccess.pendingQueue packetPushed:vector(packetBytes) ETV
attr interpolationmode none
attr title "packet pushed, vector(packetBytes)"
vector 114 RoutingScenario.node[10].wlan[0].mac.dcf.channelAccess.pendingQueue queueLength:vector ETV
attr interpolationmode sample-hold
attr source "count(packetPushed) - count(packetPopped) - count(packetRemoved) - count(packetDropped)"
attr title "queue length, vector"
vector 115 RoutingScenario.node[10].wlan[0].mac.dcf.channelAccess.contention backoffPeriodGenerated:vector ETV
attr interpolationmode none
attr title "backoff periods, vector"
vector 116 RoutingScenario.node[10].wlan[0].mac.dcf.channelAccess.contention backoffActive:vector ETV
attr interpolationmode sample-hold
attr source count(backoffStarted)-count(backoffStopped)
attr title "backoff active, vector"
vector 117 RoutingScenario.node[10].wlan[0].mac.dcf.channelAccess.pendingQueue packetPopped:vector(packetBytes) ETV
attr interpolationmode none
attr title "packet popped, vector(packetBytes)"
vector 118 RoutingScenario.node[10].wlan[0].mac.dcf.channelAccess.pendingQueue queueingTime:vector ETV
attr interpolationmode none
attr source queueingTime(packetPopped)
attr title "queueing times, vector"
attr unit s
vector 119 RoutingScenario.node[10].wlan[0].mac.dcf.channelAccess.inProgressFrames queueLength:vector ETV
attr interpolationmode sample-hold
attr source "count(packetEnqueued) - count(packetDequeued)"
attr title "queue length, vector"
vector 120 RoutingScenario.node[10].wlan[0].mac.dcf datarateSelected:vector ETV
attr interpolationmode none
attr title "datarates selected, vector"
vector 121 RoutingScenario.node[10].wlan[0].mac packetSentToLower:vector(packetBytes) ETV
attr interpolationmode none
attr title "packets sent to lower layer, vector(packetBytes)"
vector 122 RoutingScenario.node[10].wlan[0].mac.dcf frameSequenceActive:vector ETV
attr interpolationmode sample-hold
attr source count(frameSequenceStarted)-count(frameSequenceFinished)
attr title "frame sequence active, vector"
vector 123 RoutingScenario.node[10].wlan[0].radio transmissionState:vector ETV
attr interpolationmode sample-hold
attr source transmissionStateChanged
attr title "Radio transmission state, vector"
vector 124 RoutingScenario.node[7].wlan[0].mac packetReceivedFromUpper:vector(packetBytes) ETV
attr interpolationmode none
attr title "packets received from upper layer, vector(packetBytes)"
vector 125 RoutingScenario.node[7].wlan[0].mac.dcf.channelAccess.pendingQueue packetPushed:vector(packetBytes) ETV
attr interpolationmode none
attr title "packet pushed, vector(packetBytes)"
vector 126 RoutingScenario.node[7].wlan[0].mac.dcf.channelAccess.pendingQueue queueLength:vector ETV
attr interpolationmode sample-hold
attr source "count(packetPushed) - count(packetPopped) - count(packetRemoved) - count(packetDropped)"
attr title "queue length, vector"
vector 127 RoutingScenario.node[7].wlan[0].mac.dcf.channelAccess.contention backoffPeriodGenerated:vector ETV
attr interpolationmode none
attr title "backoff periods, vector"
vector 128 RoutingScenario.node[7].wlan[0].mac.dcf.channelAccess.contention backoffActive:vector ETV
attr interpolationmode sample-hold
attr source count(backoffStarted)-count(backoffStopped)
attr title "backoff active, vector"
vector 129 RoutingScenario.node[7].wlan[0].mac.dcf.channelAccess.pendingQueue packetPopped:vector(packetBytes) ETV
attr interpolationmode none
attr title "packet popped, vector(packetBytes)"
vector 130 RoutingScenario.node[7].wlan[0].mac.dcf.channelAccess.pendingQueue queueingTime:vector ETV
attr interpolationmode none
attr source queueingTime(packetPopped)
attr title "queueing times, vector"
attr unit s
vector 131 RoutingScenario.node[7].wlan[0].mac.dcf.channelAccess.inProgressFrames queueLength:vector ETV
attr interpolationmode sample-hold
attr source "count(packetEnqueued) - count(packetDequeued)"
attr title "queue length, vector"
vector 132 RoutingScenario.node[7].wlan[0].mac.dcf datarateSelected:vector ETV
attr interpolationmode none
attr title "datarates selected, vector"
vector 133 RoutingScenario.node[7].wlan[0].mac packetSentToLower:vector(packetBytes) ETV
attr interpolationmode none
attr title "packets sent to lower layer, vector(packetBytes)"
vector 134 RoutingScenario.node[7].wlan[0].mac.dcf frameSequenceActive:vector ETV
attr interpolationmode sample-hold
attr source count(frameSequenceStarted)-count(frameSequenceFinished)
attr title "frame sequence active, vector"
vector 135 RoutingScenario.node[7].wlan[0].radio transmissionState:vector ETV
attr interpolationmode sample-hold
attr source transmissionStateChanged
attr title "Radio transmission state, vector"
vector 136 RoutingScenario.node[10].wlan[0].mac.dcf packetSentToPeer:vector(packetBytes) ETV
attr interpolationmode none
attr title "packets sent, vector(packetBytes)"
vector 137 RoutingScenario.node[10].wlan[0].mac.dcf packetSentToPeerMulticast:vector(packetBytes) ETV
attr interpolationmode none
attr source ieee80211Multicast(packetSentToPeer)
attr title "packets sent: multicast, vector(packetBytes)"
vector 138 RoutingScenario.node[10].wlan[0].mac.dcf packetSentToPeerBroadcast:vector(packetBytes) ETV
attr interpolationmode none
attr source ieee80211Broadcast(packetSentToPeer)
attr title "packets sent: broadcast , vector(packetBytes)"
vector 139 RoutingScenario.node[10].wlan[0].mac.dcf packetSentToPeerWithoutRetry:vector(packetBytes) ETV
attr interpolationmode none
attr source ieee80211NotRetry(packetSentToPeer)
attr title "packets sent: without retry, vector(packetBytes)"
vector 140 RoutingScenario.node[10].wlan[0].mac.dcf.channelAccess.inProgressFrames queueingTime:vector ETV
attr interpolationmode none
attr source queueingTime(packetDequeued)
attr title "queueing times, vector"
vector 141 RoutingScenario.node[8].wlan[0].mac packetReceivedFromLower:vector(packetBytes) ETV
attr interpolationmode none
attr title "packets received from lower layer, vector(packetBytes)"
vector 142 RoutingScenario.node[8].wlan[0].mac.dcf packetReceivedFromPeer:vector(packetBytes) ETV
attr interpolationmode none
attr title "packets received, vector(packetBytes)"
vector 143 RoutingScenario.node[8].wlan[0].mac.dcf packetReceivedFromPeerMulticast:vector(packetBytes) ETV
attr interpolationmode none
attr source ieee80211Multicast(packetReceivedFromPeer)
attr title "packets received: multicast, vector(packetBytes)"
vector 144 RoutingScenario.node[8].wlan[0].mac.dcf packetReceivedFromPeerBroadcast:vector(packetBytes) ETV
attr interpolationmode none
attr source ieee80211Broadcast(packetReceivedFromPeer)
attr title "packets received: broadcast, vector(packetBytes)"
vector 145 RoutingScenario.node[8].wlan[0].mac.dcf packetReceivedFromPeerWithoutRetry:vector(packetBytes) ETV
attr interpolationmode none
attr source ieee80211NotRetry(packetReceivedFromPeer)
attr title "packets received: without retry, vector(packetBytes)"
vector 146 RoutingScenario.node[8].wlan[0].mac packetSentToUpper:vector(packetBytes) ETV
attr interpolationmode none
attr title "packets sent to upper layer, vector(packetBytes)"
vector 147 RoutingScenario.node[8].udp packetReceived:vector(packetBytes) ETV
attr interpolationmode none
attr source packetReceived
attr title "packets received, vector(packetBytes)"
vector 148 RoutingScenario.node[8].udp passedUpPk:vector(count) ETV
attr interpolationmode none
attr source packetSentToUpper
attr title "packets passed up, vector(count)"
vector 149 RoutingScenario.node[7].wlan[0].mac.dcf packetSentToPeer:vector(packetBytes) ETV
attr interpolationmode none
attr title "packets sent, vector(packetBytes)"
vector 150 RoutingScenario.node[7].wlan[0].mac.dcf packetSentToPeerMulticast:vector(packetBytes) ETV
attr interpolationmode none
attr source ieee80211Multicast(packetSentToPeer)
attr title "packets sent: multicast, vector(packetBytes)"
vector 151 RoutingScenario.node[7].wlan[0].mac.dcf packetSentToPeerBroadcast:vector(packetBytes) ETV
attr interpolationmode none
attr source ieee80211Broadcast(packetSentToPeer)
attr title "packets sent: broadcast , vector(packetBytes)"
vector 152 RoutingScenario.node[7].wlan[0].mac.dcf packetSentToPeerWithoutRetry:vector(packetBytes) ETV
attr interpolationmode none
attr source ieee80211NotRetry(packetSentToPeer)
attr title "packets sent: without retry, vector(packetBytes)"
vector 153 RoutingScenario.node[7].wlan[0].mac.dcf.channelAccess.inProgressFrames queueingTime:vector ETV
attr interpolationmode none
attr source queueingTime(packetDequeued)
attr title "queueing times, vector"
vector 154 RoutingScenario.node[5].wlan[0].mac packetReceivedFromUpper:vector(packetBytes) ETV
attr interpolationmode none
attr title "packets received from upper layer, vector(packetBytes)"
vector 155 RoutingScenario.node[5].wlan[0].mac.dcf.channelAccess.pendingQueue packetPushed:vector(packetBytes) ETV
attr interpolationmode none
attr title "packet pushed, vector(packetBytes)"
vector 156 RoutingScenario.node[5].wlan[0].mac.dcf.channelAccess.pendingQueue queueLength:vector ETV
attr interpolationmode sample-hold
attr source "count(packetPushed) - count(packetPopped) - count(packetRemoved) - count(packetDropped)"
attr title "queue length, vector"
vector 157 RoutingScenario.node[5].wlan[0].mac.dcf.channelAccess.contention backoffPeriodGenerated:vector ETV
attr interpolationmode none
attr title "backoff periods, vector"
vector 158 RoutingScenario.node[5].wlan[0].mac.dcf.channelAccess.contention backoffActive:vector ETV
attr interpolationmode sample-hold
attr source count(backoffStarted)-count(backoffStopped)
attr title "backoff active, vector"
vector 159 RoutingScenario.node[5].wlan[0].mac.dcf.channelAccess.pendingQueue packetPopped:vector(packetBytes) ETV
attr interpolationmode none
attr title "packet popped, vector(packetBytes)"
vector 160 RoutingScenario.node[5].wlan[0].mac.dcf.channelAccess.pendingQueue queueingTime:vector ETV
attr interpolationmode none
attr source queueingTime(packetPopped)
attr title "queueing times, vector"
attr unit s
vector 161 RoutingScenario.node[5].wlan[0].mac.dcf.channelAccess.inProgressFrames queueLength:vector ETV
attr interpolationmode sample-hold
attr source "count(packetEnqueued) - count(packetDequeued)"
attr title "queue length, vector"
vector 162 RoutingScenario.node[5].wlan[0].mac.dcf datarateSelected:vector ETV
attr interpolationmode none
attr title "datarates selected, vector"
vector 163 RoutingScenario.node[5].wlan[0].mac packetSentToLower:vector(packetBytes) ETV
attr interpolationmode none
attr title "packets sent to lower layer, vector(packetBytes)"
vector 164 RoutingScenario.node[5].wlan[0].mac.dcf frameSequenceActive:vector ETV
attr interpolationmode sample-hold
attr source count(frameSequenceStarted)-count(frameSequenceFinished)
attr title "frame sequence active, vector"
vector 165 RoutingScenario.node[5].wlan[0].radio transmissionState:vector ETV
attr interpolationmode sample-hold
attr source transmissionStateChanged
attr title "Radio transmission state, vector"
vector 166 RoutingScenario.node[5].wlan[0].mac.dcf packetSentToPeer:vector(packetBytes) ETV
attr interpolationmode none
attr title "packets sent, vector(packetBytes)"
vector 167 RoutingScenario.node[5].wlan[0].mac.dcf packetSentToPeerMulticast:vector(packetBytes) ETV
attr interpolationmode none
attr source ieee80211Multicast(packetSentToPeer)
attr title "packets sent: multicast, vector(packetBytes)"
vector 168 RoutingScenario.node[5].wlan[0].mac.dcf packetSentToPeerBroadcast:vector(packetBytes) ETV
attr interpolationmode none
attr source ieee80211Broadcast(packetSentToPeer)
attr title "packets sent: broadcast , vector(packetBytes)"
vector 169 RoutingScenario.node[5].wlan[0].mac.dcf packetSentToPeerWithoutRetry:vector(packetBytes) ETV
attr interpolationmode none
attr source ieee80211NotRetry(packetSentToPeer)
attr title "packets sent: without retry, vector(packetBytes)"
vector 170 RoutingScenario.node[5].wlan[0].mac.dcf.channelAccess.inProgressFrames queueingTime:vector ETV
attr interpolationmode none
attr source queueingTime(packetDequeued)
attr title "queueing times, vector"
vector 171 RoutingScenario.node[1].wlan[0].mac packetReceivedFromLower:vector(packetBytes) ETV
attr interpolationmode none
attr title "packets received from lower layer, vector(packetBytes)"
vector 172 RoutingScenario.node[1].wlan[0].mac.dcf packetReceivedFromPeer:vector(packetBytes) ETV
attr interpolationmode none
attr title "packets received, vector(packetBytes)"
vector 173 RoutingScenario.node[1].wlan[0].mac.dcf packetReceivedFromPeerMulticast:vector(packetBytes) ETV
attr interpolationmode none
attr source ieee80211Multicast(packetReceivedFromPeer)
attr title "packets received: multicast, vector(packetBytes)"
vector 174 RoutingScenario.node[1].wlan[0].mac.dcf packetReceivedFromPeerBroadcast:vector(packetBytes) ETV
attr interpolationmode none
attr source ieee80211Broadcast(packetReceivedFromPeer)
attr title "packets received: broadcast, vector(packetBytes)"
vector 175 RoutingScenario.node[1].wlan[0].mac.dcf packetReceivedFromPeerWithoutRetry:vector(packetBytes) ETV
attr interpolationmode none
attr source ieee80211NotRetry(packetReceivedFromPeer)
attr title "packets received: without retry, vector(packetBytes)"
vector 176 RoutingScenario.node[1].wlan[0].mac packetSentToUpper:vector(packetBytes) ETV
attr interpolationmode none
attr title "packets sent to upper layer, vector(packetBytes)"
vector 177 RoutingScenario.node[1].udp packetReceived:vector(packetBytes) ETV
attr interpolationmode none
attr source packetReceived
attr title "packets received, vector(packetBytes)"
vector 178 RoutingScenario.node[1].udp passedUpPk:vector(count) ETV
attr interpolationmode none
attr source packetSentToUpper
attr title "packets passed up, vector(count)"
vector 179 RoutingScenario.node[4].wlan[0].mac packetReceivedFromUpper:vector(packetBytes) ETV
attr interpolationmode none
attr title "packets received from upper layer, vector(packetBytes)"
vector 180 RoutingScenario.node[4].wlan[0].mac.dcf.channelAccess.pendingQueue packetPushed:vector(packetBytes) ETV
attr interpolationmode none
attr title "packet pushed, vector(packetBytes)"
vector 181 RoutingScenario.node[4].wlan[0].mac.dcf.channelAccess.pendingQueue queueLength:vector ETV
attr interpolationmode sample-hold
attr source "count(packetPushed) - count(packetPopped) - count(packetRemoved) - count(packetDropped)"
attr title "queue length, vector"
vector 182 RoutingScenario.node[4].wlan[0].mac.dcf.channelAccess.contention backoffPeriodGenerated:vector ETV
attr interpolationmode none
attr title "backoff periods, vector"
vector 183 RoutingScenario.node[4].wlan[0].mac.dcf.channelAccess.contention backoffActive:vector ETV
attr interpolationmode sample-hold
attr source count(backoffStarted)-count(backoffStopped)
attr title "backoff active, vector"
vector 184 RoutingScenario.node[4].wlan[0].mac.dcf.channelAccess.pendingQueue packetPopped:vector(packetBytes) ETV
attr interpolationmode none
attr title "packet popped, vector(packetBytes)"
vector 185 RoutingScenario.node[4].wlan[0].mac.dcf.channelAccess.pendingQueue queueingTime:vector ETV
attr interpolationmode none
attr source queueingTime(packetPopped)
attr title "queueing times, vector"
attr unit s
vector 186 RoutingScenario.node[4].wlan[0].mac.dcf.channelAccess.inProgressFrames queueLength:vector ETV
attr interpolationmode sample-hold
attr source "count(packetEnqueued) - count(packetDequeued)"
attr title "queue length, vector"
vector 187 RoutingScenario.node[4].wlan[0].mac.dcf datarateSelected:vector ETV
attr interpolationmode none
attr title "datarates selected, vector"
vector 188 RoutingScenario.node[4].wlan[0].mac packetSentToLower:vector(packetBytes) ETV
attr interpolationmode none
attr title "packets sent to lower layer, vector(packetBytes)"
vector 189 RoutingScenario.node[4].wlan[0].mac.dcf frameSequenceActive:vector ETV
attr interpolationmode sample-hold
attr source count(frameSequenceStarted)-count(frameSequenceFinished)
attr title "frame sequence active, vector"
vector 190 RoutingScenario.node[4].wlan[0].radio transmissionState:vector ETV
attr interpolationmode sample-hold
attr source transmissionStateChanged
attr title "Radio transmission state, vector"
vector 191 RoutingScenario.node[4].wlan[0].mac.dcf packetSentToPeer:vector(packetBytes) ETV
attr interpolationmode none
attr title "packets sent, vector(packetBytes)"
vector 192 RoutingScenario.node[4].wlan[0].mac.dcf packetSentToPeerMulticast:vector(packetBytes) ETV
attr interpolationmode none
attr source ieee80211Multicast(packetSentToPeer)
attr title "packets sent: multicast, vector(packetBytes)"
vector 193 RoutingScenario.node[4].wlan[0].mac.dcf packetSentToPeerBroadcast:vector(packetBytes) ETV
attr interpolationmode none
attr source ieee80211Broadcast(packetSentToPeer)
attr title "packets sent: broadcast , vector(packetBytes)"
vector 194 RoutingScenario.node[4].wlan[0].mac.dcf packetSentToPeerWithoutRetry:vector(packetBytes) ETV
attr interpolationmode none
attr source ieee80211NotRetry(packetSentToPeer)
attr title "packets sent: without retry, vector(packetBytes)"
vector 195 RoutingScenario.node[4].wlan[0].mac.dcf.channelAccess.inProgressFrames queueingTime:vector ETV
attr interpolationmode none
attr source queueingTime(packetDequeued)
attr title "queueing times, vector"
vector 196 RoutingScenario.node[1].wlan[0].mac packetReceivedFromUpper:vector(packetBytes) ETV
attr interpolationmode none
attr title "packets received from upper layer, vector(packetBytes)"
vector 197 RoutingScenario.node[1].wlan[0].mac.dcf.channelAccess.pendingQueue packetPushed:vector(packetBytes) ETV
attr interpolationmode none
attr title "packet pushed, vector(packetBytes)"
vector 198 RoutingScenario.node[1].wlan[0].mac.dcf.channelAccess.pendingQueue queueLength:vector ETV
attr interpolationmode sample-hold
attr source "count(packetPushed) - count(packetPopped) - count(packetRemoved) - count(packetDropped)"
attr title "queue length, vector"
vector 199 RoutingScenario.node[1].wlan[0].mac.dcf.channelAccess.contention backoffPeriodGenerated:vector ETV
attr interpolationmode none
attr title "backoff periods, vector"
vector 200 RoutingScenario.node[1].wlan[0].mac.dcf.channelAccess.contention backoffActive:vector ETV
attr interpolationmode sample-hold
attr source count(backoffStarted)-count(backoffStopped)
attr title "backoff active, vector"
vector 201 RoutingScenario.node[1].wlan[0].mac.dcf.channelAccess.pendingQueue packetPopped:vector(packetBytes) ETV
attr interpolationmode none
attr title "packet popped, vector(packetBytes)"
vector 202 RoutingScenario.node[1].wlan[0].mac.dcf.channelAccess.pendingQueue queueingTime:vector ETV
attr interpolationmode none
attr source queueingTime(packetPopped)
attr title "queueing times, vector"
attr unit s
vector 203 RoutingScenario.node[1].wlan[0].mac.dcf.channelAccess.inProgressFrames queueLength:vector ETV
attr interpolationmode sample-hold
attr source "count(packetEnqueued) - count(packetDequeued)"
attr title "queue length, vector"
vector 204 RoutingScenario.node[1].wlan[0].mac.dcf datarateSelected:vector ETV
attr interpolationmode none
attr title "datarates selected, vector"
vector 205 RoutingScenario.node[1].wlan[0].mac packetSentToLower:vector(packetBytes) ETV
attr interpolationmode none
attr title "packets sent to lower layer, vector(packetBytes)"
vector 206 RoutingScenario.node[1].wlan[0].mac.dcf frameSequenceActive:vector ETV
attr interpolationmode sample-hold
attr source count(frameSequenceStarted)-count(frameSequenceFinished)
attr title "frame sequence active, vector"
vector 207 RoutingScenario.node[1].wlan[0].radio transmissionState:vector ETV
attr interpolationmode sample-hold
attr source transmissionStateChanged
attr title "Radio transmission state, vector"
vector 208 RoutingScenario.node[1].wlan[0].mac.dcf packetSentToPeer:vector(packetBytes) ETV
attr interpolationmode none
attr title "packets sent, vector(packetBytes)"
vector 209 RoutingScenario.node[1].wlan[0].mac.dcf packetSentToPeerMulticast:vector(packetBytes) ETV
attr interpolationmode none
attr source ieee80211Multicast(packetSentToPeer)
attr title "packets sent: multicast, vector(packetBytes)"
vector 210 RoutingScenario.node[1].wlan[0].mac.dcf packetSentToPeerBroadcast:vector(packetBytes) ETV
attr interpolationmode none
attr source ieee80211Broadcast(packetSentToPeer)
attr title "packets sent: broadcast , vector(packetBytes)"
vector 211 RoutingScenario.node[1].wlan[0].mac.dcf packetSentToPeerWithoutRetry:vector(packetBytes) ETV
attr interpolationmode none
attr source ieee80211NotRetry(packetSentToPeer)
attr title "packets sent: without retry, vector(packetBytes)"
vector 212 RoutingScenario.node[1].wlan[0].mac.dcf.channelAccess.inProgressFrames queueingTime:vector ETV
attr interpolationmode none
attr source queueingTime(packetDequeued)
attr title "queueing times, vector"
vector 213 RoutingScenario.node[4].wlan[0].mac packetReceivedFromLower:vector(packetBytes) ETV
attr interpolationmode none
attr title "packets received from lower layer, vector(packetBytes)"
vector 214 RoutingScenario.node[4].wlan[0].mac.dcf packetReceivedFromPeer:vector(packetBytes) ETV
attr interpolationmode none
attr title "packets received, vector(packetBytes)"
vector 215 RoutingScenario.node[4].wlan[0].mac.dcf packetReceivedFromPeerMulticast:vector(packetBytes) ETV
attr interpolationmode none
attr source ieee80211Multicast(packetReceivedFromPeer)
attr title "packets received: multicast, vector(packetBytes)"
vector 216 RoutingScenario.node[4].wlan[0].mac.dcf packetReceivedFromPeerBroadcast:vector(packetBytes) ETV
attr interpolationmode none
attr source ieee80211Broadcast(packetReceivedFromPeer)
attr title "packets received: broadcast, vector(packetBytes)"
vector 217 RoutingScenario.node[4].wlan[0].mac.dcf packetReceivedFromPeerWithoutRetry:vector(packetBytes) ETV
attr interpolationmode none
attr source ieee80211NotRetry(packetReceivedFromPeer)
attr title "packets received: without retry, vector(packetBytes)"
vector 218 RoutingScenario.node[4].wlan[0].mac packetSentToUpper:vector(packetBytes) ETV
attr interpolationmode none
attr title "packets sent to upper layer, vector(packetBytes)"
vector 219 RoutingScenario.node[4].udp packetReceived:vector(packetBytes) ETV
attr interpolationmode none
attr source packetReceived
attr title "packets received, vector(packetBytes)"
vector 220 RoutingScenario.node[4].udp passedUpPk:vector(count) ETV
attr interpolationmode none
attr source packetSentToUpper
attr title "packets passed up, vector(count)"
vector 221 RoutingScenario.node[5].wlan[0].mac packetReceivedFromLower:vector(packetBytes) ETV
attr interpolationmode none
attr title "packets received from lower layer, vector(packetBytes)"
vector 222 RoutingScenario.node[5].wlan[0].mac.dcf packetReceivedFromPeer:vector(packetBytes) ETV
attr interpolationmode none
attr title "packets received, vector(packetBytes)"
vector 223 RoutingScenario.node[5].wlan[0].mac.dcf packetReceivedFromPeerMulticast:vector(packetBytes) ETV
attr interpolationmode none
attr source ieee80211Multicast(packetReceivedFromPeer)
attr title "packets received: multicast, vector(packetBytes)"
vector 224 RoutingScenario.node[5].wlan[0].mac.dcf packetReceivedFromPeerBroadcast:vector(packetBytes) ETV
attr interpolationmode none
attr source ieee80211Broadcast(packetReceivedFromPeer)
attr title "packets received: broadcast, vector(packetBytes)"
vector 225 RoutingScenario.node[5].wlan[0].mac.dcf packetReceivedFromPeerWithoutRetry:vector(packetBytes) ETV
attr interpolationmode none
attr source ieee80211NotRetry(packetReceivedFromPeer)
attr title "packets received: without retry, vector(packetBytes)"
vector 226 RoutingScenario.node[5].wlan[0].mac packetSentToUpper:vector(packetBytes) ETV
attr interpolationmode none
attr title "packets sent to upper layer, vector(packetBytes)"
vector 227 RoutingScenario.node[5].udp packetReceived:vector(packetBytes) ETV
attr interpolationmode none
attr source packetReceived
attr title "packets received, vector(packetBytes)"
vector 228 RoutingScenario.node[5].udp passedUpPk:vector(count) ETV
attr interpolationmode none
attr source packetSentToUpper
attr title "packets passed up, vector(count)"
vector 229 RoutingScenario.node[3].wlan[0].mac packetReceivedFromUpper:vector(packetBytes) ETV
attr interpolationmode none
attr title "packets received from upper layer, vector(packetBytes)"
vector 230 RoutingScenario.node[3].wlan[0].mac.dcf.channelAccess.pendingQueue packetPushed:vector(packetBytes) ETV
attr interpolationmode none
attr title "packet pushed, vector(packetBytes)"
vector 231 RoutingScenario.node[3].wlan[0].mac.dcf.channelAccess.pendingQueue queueLength:vector ETV
attr interpolationmode sample-hold
attr source "count(packetPushed) - count(packetPopped) - count(packetRemoved) - count(packetDropped)"
attr title "queue length, vector"
vector 232 RoutingScenario.node[3].wlan[0].mac.dcf.channelAccess.contention backoffPeriodGenerated:vector ETV
attr interpolationmode none
attr title "backoff periods, vector"
vector 233 RoutingScenario.node[3].wlan[0].mac.dcf.channelAccess.contention backoffActive:vector ETV
attr interpolationmode sample-hold
attr source count(backoffStarted)-count(backoffStopped)
attr title "backoff active, vector"
vector 234 RoutingScenario.node[3].wlan[0].mac.dcf.channelAccess.pendingQueue packetPopped:vector(packetBytes) ETV
attr interpolationmode none
attr title "packet popped, vector(packetBytes)"
vector 235 RoutingScenario.node[3].wlan[0].mac.dcf.channelAccess.pendingQueue queueingTime:vector ETV
attr interpolationmode none
attr source queueingTime(packetPopped)
attr title "queueing times, vector"
attr unit s
vector 236 RoutingScenario.node[3].wlan[0].mac.dcf.channelAccess.inProgressFrames queueLength:vector ETV
attr interpolationmode sample-hold
attr source "count(packetEnqueued) - count(packetDequeued)"
attr title "queue length, vector"
vector 237 RoutingScenario.node[3].wlan[0].mac.dcf datarateSelected:vector ETV
attr interpolationmode none
attr title "datarates selected, vector"
vector 238 RoutingScenario.node[3].wlan[0].mac packetSentToLower:vector(packetBytes) ETV
attr interpolationmode none
attr title "packets sent to lower layer, vector(packetBytes)"
vector 239 RoutingScenario.node[3].wlan[0].mac.dcf frameSequenceActive:vector ETV
attr interpolationmode sample-hold
attr source count(frameSequenceStarted)-count(frameSequenceFinished)
attr title "frame sequence active, vector"
vector 240 RoutingScenario.node[3].wlan[0].radio transmissionState:vector ETV
attr interpolationmode sample-hold
attr source transmissionStateChanged
attr title "Radio transmission state, vector"
vector 241 RoutingScenario.node[3].wlan[0].mac.dcf packetSentToPeer:vector(packetBytes) ETV
attr interpolationmode none
attr title "packets sent, vector(packetBytes)"
vector 242 RoutingScenario.node[3].wlan[0].mac.dcf packetSentToPeerMulticast:vector(packetBytes) ETV
attr interpolationmode none
attr source ieee80211Multicast(packetSentToPeer)
attr title "packets sent: multicast, vector(packetBytes)"
vector 243 RoutingScenario.node[3].wlan[0].mac.dcf packetSentToPeerBroadcast:vector(packetBytes) ETV
attr interpolationmode none
attr source ieee80211Broadcast(packetSentToPeer)
attr title "packets sent: broadcast , vector(packetBytes)"
vector 244 RoutingScenario.node[3].wlan[0].mac.dcf packetSentToPeerWithoutRetry:vector(packetBytes) ETV
attr interpolationmode none
attr source ieee80211NotRetry(packetSentToPeer)
attr title "packets sent: without retry, vector(packetBytes)"
vector 245 RoutingScenario.node[3].wlan[0].mac.dcf.channelAccess.inProgressFrames queueingTime:vector ETV
attr interpolationmode none
attr source queueingTime(packetDequeued)
attr title "queueing times, vector"
vector 246 RoutingScenario.node[0].wlan[0].mac packetReceivedFromLower:vector(packetBytes) ETV
attr interpolationmode none
attr title "packets received from lower layer, vector(packetBytes)"
vector 247 RoutingScenario.node[0].wlan[0].mac.dcf packetReceivedFromPeer:vector(packetBytes) ETV
attr interpolationmode none
attr title "packets received, vector(packetBytes)"
vector 248 RoutingScenario.node[0].wlan[0].mac.dcf packetReceivedFromPeerMulticast:vector(packetBytes) ETV
attr interpolationmode none
attr source ieee80211Multicast(packetReceivedFromPeer)
attr title "packets received: multicast, vector(packetBytes)"
vector 249 RoutingScenario.node[0].wlan[0].mac.dcf packetReceivedFromPeerBroadcast:vector(packetBytes) ETV
attr interpolationmode none
attr source ieee80211Broadcast(packetReceivedFromPeer)
attr title "packets received: broadcast, vector(packetBytes)"
vector 250 RoutingScenario.node[0].wlan[0].mac.dcf packetReceivedFromPeerWithoutRetry:vector(packetBytes) ETV
attr interpolationmode none
attr source ieee80211NotRetry(packetReceivedFromPeer)
attr title "packets received: without retry, vector(packetBytes)"
vector 251 RoutingScenario.node[0].wlan[0].mac packetSentToUpper:vector(packetBytes) ETV
attr interpolationmode none
attr title "packets sent to upper layer, vector(packetBytes)"
vector 252 RoutingScenario.node[0].udp passedUpPk:vector(count) ETV
attr interpolationmode none
attr source packetSentToUpper
attr title "packets passed up, vector(count)"
vector 253 RoutingScenario.node[0].ipv4.arp arpRequestSent:vector(packetBytes) ETV
attr source arpRequestSent
attr title "ARP request sent, vector(packetBytes)"
vector 254 RoutingScenario.node[0].wlan[0].mac packetReceivedFromUpper:vector(packetBytes) ETV
attr interpolationmode none
attr title "packets received from upper layer, vector(packetBytes)"
vector 255 RoutingScenario.node[0].wlan[0].mac.dcf.channelAccess.pendingQueue packetPushed:vector(packetBytes) ETV
attr interpolationmode none
attr title "packet pushed, vector(packetBytes)"
vector 256 RoutingScenario.node[0].wlan[0].mac.dcf.channelAccess.pendingQueue queueLength:vector ETV
attr interpolationmode sample-hold
attr source "count(packetPushed) - count(packetPopped) - count(packetRemoved) - count(packetDropped)"
attr title "queue length, vector"
vector 257 RoutingScenario.node[0].wlan[0].mac.dcf.channelAccess.contention backoffPeriodGenerated:vector ETV
attr interpolationmode none
attr title "backoff periods, vector"
vector 258 RoutingScenario.node[0].wlan[0].mac.dcf.channelAccess.contention backoffActive:vector ETV
attr interpolationmode sample-hold
attr source count(backoffStarted)-count(backoffStopped)
attr title "backoff active, vector"
vector 259 RoutingScenario.node[9].wlan[0].mac packetReceivedFromUpper:vector(packetBytes) ETV
attr interpolationmode none
attr title "packets received from upper layer, vector(packetBytes)"
vector 260 RoutingScenario.node[9].wlan[0].mac.dcf.channelAccess.pendingQueue packetPushed:vector(packetBytes) ETV
attr interpolationmode none
attr title "packet pushed, vector(packetBytes)"
vector 261 RoutingScenario.node[9].wlan[0].mac.dcf.channelAccess.pendingQueue queueLength:vector ETV
attr interpolationmode sample-hold
attr source "count(packetPushed) - count(packetPopped) - count(packetRemoved) - count(packetDropped)"
attr title "queue length, vector"
vector 262 RoutingScenario.node[9].wlan[0].mac.dcf.channelAccess.contention backoffPeriodGenerated:vector ETV
attr interpolationmode none
attr title "backoff periods, vector"
vector 263 RoutingScenario.node[9].wlan[0].mac.dcf.channelAccess.contention backoffActive:vector ETV
attr interpolationmode sample-hold
attr source count(backoffStarted)-count(backoffStopped)
attr title "backoff active, vector"
vector 264 RoutingScenario.node[9].wlan[0].mac.dcf.channelAccess.pendingQueue packetPopped:vector(packetBytes) ETV
attr interpolationmode none
attr title "packet popped, vector(packetBytes)"
vector 265 RoutingScenario.node[9].wlan[0].mac.dcf.channelAccess.pendingQueue queueingTime:vector ETV
attr interpolationmode none
attr source queueingTime(packetPopped)
attr title "queueing times, vector"
attr unit s
vector 266 RoutingScenario.node[9].wlan[0].mac.dcf.channelAccess.inProgressFrames queueLength:vector ETV
attr interpolationmode sample-hold
attr source "count(packetEnqueued) - count(packetDequeued)"
attr title "queue length, vector"
vector 267 RoutingScenario.node[9].wlan[0].mac.dcf datarateSelected:vector ETV
attr interpolationmode none
attr title "datarates selected, vector"
vector 268 RoutingScenario.node[9].wlan[0].mac packetSentToLower:vector(packetBytes) ETV
attr interpolationmode none
attr title "packets sent to lower layer, vector(packetBytes)"
vector 269 RoutingScenario.node[9].wlan[0].mac.dcf frameSequenceActive:vector ETV
attr interpolationmode sample-hold
attr source count(frameSequenceStarted)-count(frameSequenceFinished)
attr title "frame sequence active, vector"
vector 270 RoutingScenario.node[9].wlan[0].radio transmissionState:vector ETV
attr interpolationmode sample-hold
attr source transmissionStateChanged
attr title "Radio transmission state, vector"
vector 271 RoutingScenario.node[0].wlan[0].mac.dcf.channelAccess.pendingQueue packetPopped:vector(packetBytes) ETV
attr interpolationmode none
attr title "packet popped, vector(packetBytes)"
vector 272 RoutingScenario.node[0].wlan[0].mac.dcf.channelAccess.pendingQueue queueingTime:vector ETV
attr interpolationmode none
attr source queueingTime(packetPopped)
attr title "queueing times, vector"
attr unit s
vector 273 RoutingScenario.node[0].wlan[0].mac.dcf.channelAccess.inProgressFrames queueLength:vector ETV
attr interpolationmode sample-hold
attr source "count(packetEnqueued) - count(packetDequeued)"
attr title "queue length, vector"
vector 274 RoutingScenario.node[0].wlan[0].mac.dcf datarateSelected:vector ETV
attr interpolationmode none
attr title "datarates selected, vector"
vector 275 RoutingScenario.node[0].wlan[0].mac packetSentToLower:vector(packetBytes) ETV
attr interpolationmode none
attr title "packets sent to lower layer, vector(packetBytes)"
vector 276 RoutingScenario.node[0].wlan[0].mac.dcf frameSequenceActive:vector ETV
attr interpolationmode sample-hold
attr source count(frameSequenceStarted)-count(frameSequenceFinished)
attr title "frame sequence active, vector"
vector 277 RoutingScenario.node[0].wlan[0].radio transmissionState:vector ETV
attr interpolationmode sample-hold
attr source transmissionStateChanged
attr title "Radio transmission state, vector"
vector 278 RoutingScenario.node[9].wlan[0].mac.dcf packetSentToPeer:vector(packetBytes) ETV
attr interpolationmode none
attr title "packets sent, vector(packetBytes)"
vector 279 RoutingScenario.node[9].wlan[0].mac.dcf packetSentToPeerMulticast:vector(packetBytes) ETV
attr interpolationmode none
attr source ieee80211Multicast(packetSentToPeer)
attr title "packets sent: multicast, vector(packetBytes)"
vector 280 RoutingScenario.node[9].wlan[0].mac.dcf packetSentToPeerBroadcast:vector(packetBytes) ETV
attr interpolationmode none
attr source ieee80211Broadcast(packetSentToPeer)
attr title "packets sent: broadcast , vector(packetBytes)"
vector 281 RoutingScenario.node[9].wlan[0].mac.dcf packetSentToPeerWithoutRetry:vector(packetBytes) ETV
attr interpolationmode none
attr source ieee80211NotRetry(packetSentToPeer)
attr title "packets sent: without retry, vector(packetBytes)"
vector 282 RoutingScenario.node[9].wlan[0].mac.dcf.channelAccess.inProgressFrames queueingTime:vector ETV
attr interpolationmode none
attr source queueingTime(packetDequeued)
attr title "queueing times, vector"
vector 283 RoutingScenario.node[6].wlan[0].mac packetReceivedFromLower:vector(packetBytes) ETV
attr interpolationmode none
attr title "packets received from lower layer, vector(packetBytes)"
vector 284 RoutingScenario.node[6].wlan[0].mac.dcf packetReceivedFromPeer:vector(packetBytes) ETV
attr interpolationmode none
attr title "packets received, vector(packetBytes)"
vector 285 RoutingScenario.node[6].wlan[0].mac.dcf packetReceivedFromPeerMulticast:vector(packetBytes) ETV
attr interpolationmode none
attr source ieee80211Multicast(packetReceivedFromPeer)
attr title "packets received: multicast, vector(packetBytes)"
vector 286 RoutingScenario.node[6].wlan[0].mac.dcf packetReceivedFromPeerBroadcast:vector(packetBytes) ETV
attr interpolationmode none
attr source ieee80211Broadcast(packetReceivedFromPeer)
attr title "packets received: broadcast, vector(packetBytes)"
vector 287 RoutingScenario.node[6].wlan[0].mac.dcf packetReceivedFromPeerWithoutRetry:vector(packetBytes) ETV
attr interpolationmode none
attr source ieee80211NotRetry(packetReceivedFromPeer)
attr title "packets received: without retry, vector(packetBytes)"
vector 288 RoutingScenario.node[6].wlan[0].mac packetSentToUpper:vector(packetBytes) ETV
attr interpolationmode none
attr title "packets sent to upper layer, vector(packetBytes)"
vector 289 RoutingScenario.node[6].udp packetReceived:vector(packetBytes) ETV
attr interpolationmode none
attr source packetReceived
attr title "packets received, vector(packetBytes)"
vector 290 RoutingScenario.node[6].udp passedUpPk:vector(count) ETV
attr interpolationmode none
attr source packetSentToUpper
attr title "packets passed up, vector(count)"
vector 291 RoutingScenario.node[0].wlan[0].mac.dcf packetSentToPeer:vector(packetBytes) ETV
attr interpolationmode none
attr title "packets sent, vector(packetBytes)"
vector 292 RoutingScenario.node[0].wlan[0].mac.dcf packetSentToPeerMulticast:vector(packetBytes) ETV
attr interpolationmode none
attr source ieee80211Multicast(packetSentToPeer)
attr title "packets sent: multicast, vector(packetBytes)"
vector 293 RoutingScenario.node[0].wlan[0].mac.dcf packetSentToPeerBroadcast:vector(packetBytes) ETV
attr interpolationmode none
attr source ieee80211Broadcast(packetSentToPeer)
attr title "packets sent: broadcast , vector(packetBytes)"
vector 294 RoutingScenario.node[0].wlan[0].mac.dcf packetSentToPeerWithoutRetry:vector(packetBytes) ETV
attr interpolationmode none
attr source ieee80211NotRetry(packetSentToPeer)
attr title "packets sent: without retry, vector(packetBytes)"
vector 295 RoutingScenario.node[0].wlan[0].mac.dcf.channelAccess.inProgressFrames queueingTime:vector ETV
attr interpolationmode none
attr source queueingTime(packetDequeued)
attr title "queueing times, vector"
vector 296 RoutingScenario.node[3].wlan[0].mac packetReceivedFromLower:vector(packetBytes) ETV
attr interpolationmode none
attr title "packets received from lower layer, vector(packetBytes)"
vector 297 RoutingScenario.node[3].wlan[0].mac packetDrop:vector(packetBytes) ETV
attr interpolationmode none
attr source packetDropped
attr title "packet drops, vector(packetBytes)"
vector 298 RoutingScenario.node[3].wlan[0].mac packetDropIncorrectlyReceived:vector(packetBytes) ETV
attr interpolationmode none
attr source packetDropReasonIsIncorrectlyReceived(packetDropped)
attr title "packet drops: incorrectly received, vector(packetBytes)"
vector 299 RoutingScenario.node[8].wlan[0].mac packetReceivedFromUpper:vector(packetBytes) ETV
attr interpolationmode none
attr title "packets received from upper layer, vector(packetBytes)"
vector 300 RoutingScenario.node[8].wlan[0].mac.dcf.channelAccess.pendingQueue packetPushed:vector(packetBytes) ETV
attr interpolationmode none
attr title "packet pushed, vector(packetBytes)"
vector 301 RoutingScenario.node[8].wlan[0].mac.dcf.channelAccess.pendingQueue queueLength:vector ETV
attr interpolationmode sample-hold
attr source "count(packetPushed) - count(packetPopped) - count(packetRemoved) - count(packetDropped)"
attr title "queue length, vector"
vector 302 RoutingScenario.node[8].wlan[0].mac.dcf.channelAccess.contention backoffPeriodGenerated:vector ETV
attr interpolationmode none
attr title "backoff periods, vector"
vector 303 RoutingScenario.node[8].wlan[0].mac.dcf.channelAccess.contention backoffActive:vector ETV
attr interpolationmode sample-hold
attr source count(backoffStarted)-count(backoffStopped)
attr title "backoff active, vector"
vector 304 RoutingScenario.node[8].wlan[0].mac.dcf.channelAccess.pendingQueue packetPopped:vector(packetBytes) ETV
attr interpolationmode none
attr title "packet popped, vector(packetBytes)"
vector 305 RoutingScenario.node[8].wlan[0].mac.dcf.channelAccess.pendingQueue queueingTime:vector ETV
attr interpolationmode none
attr source queueingTime(packetPopped)
attr title "queueing times, vector"
attr unit s
vector 306 RoutingScenario.node[8].wlan[0].mac.dcf.channelAccess.inProgressFrames queueLength:vector ETV
attr interpolationmode sample-hold
attr source "count(packetEnqueued) - count(packetDequeued)"
attr title "queue length, vector"
vector 307 RoutingScenario.node[8].wlan[0].mac.dcf datarateSelected:vector ETV
attr interpolationmode none
attr title "datarates selected, vector"
vector 308 RoutingScenario.node[8].wlan[0].mac packetSentToLower:vector(packetBytes) ETV
attr interpolationmode none
attr title "packets sent to lower layer, vector(packetBytes)"
vector 309 RoutingScenario.node[8].wlan[0].mac.dcf frameSequenceActive:vector ETV
attr interpolationmode sample-hold
attr source count(frameSequenceStarted)-count(frameSequenceFinished)
attr title "frame sequence active, vector"
vector 310 RoutingScenario.node[8].wlan[0].radio transmissionState:vector ETV
attr interpolationmode sample-hold
attr source transmissionStateChanged
attr title "Radio transmission state, vector"
vector 311 RoutingScenario.node[8].wlan[0].mac.dcf packetSentToPeer:vector(packetBytes) ETV
attr interpolationmode none
attr title "packets sent, vector(packetBytes)"
vector 312 RoutingScenario.node[8].wlan[0].mac.dcf packetSentToPeerMulticast:vector(packetBytes) ETV
attr interpolationmode none
attr source ieee80211Multicast(packetSentToPeer)
attr title "packets sent: multicast, vector(packetBytes)"
vector 313 RoutingScenario.node[8].wlan[0].mac.dcf packetSentToPeerBroadcast:vector(packetBytes) ETV
attr interpolationmode none
attr source ieee80211Broadcast(packetSentToPeer)
attr title "packets sent: broadcast , vector(packetBytes)"
vector 314 RoutingScenario.node[8].wlan[0].mac.dcf packetSentToPeerWithoutRetry:vector(packetBytes) ETV
attr interpolationmode none
attr source ieee80211NotRetry(packetSentToPeer)
attr title "packets sent: without retry, vector(packetBytes)"
vector 315 RoutingScenario.node[8].wlan[0].mac.dcf.channelAccess.inProgressFrames queueingTime:vector ETV
attr interpolationmode none
attr source queueingTime(packetDequeued)
attr title "queueing times, vector"
vector 316 RoutingScenario.node[10].wlan[0].mac packetReceivedFromLower:vector(packetBytes) ETV
attr interpolationmode none
attr title "packets received from lower layer, vector(packetBytes)"
vector 317 RoutingScenario.node[10].wlan[0].mac.dcf packetReceivedFromPeer:vector(packetBytes) ETV
attr interpolationmode none
attr title "packets received, vector(packetBytes)"
vector 318 RoutingScenario.node[10].wlan[0].mac.dcf packetReceivedFromPeerMulticast:vector(packetBytes) ETV
attr interpolationmode none
attr source ieee80211Multicast(packetReceivedFromPeer)
attr title "packets received: multicast, vector(packetBytes)"
vector 319 RoutingScenario.node[10].wlan[0].mac.dcf packetReceivedFromPeerBroadcast:vector(packetBytes) ETV
attr interpolationmode none
attr source ieee80211Broadcast(packetReceivedFromPeer)
attr title "packets received: broadcast, vector(packetBytes)"
vector 320 RoutingScenario.node[10].wlan[0].mac.dcf packetReceivedFromPeerWithoutRetry:vector(packetBytes) ETV
attr interpolationmode none
attr source ieee80211NotRetry(packetReceivedFromPeer)
attr title "packets received: without retry, vector(packetBytes)"
vector 321 RoutingScenario.node[10].wlan[0].mac packetSentToUpper:vector(packetBytes) ETV
attr interpolationmode none
attr title "packets sent to upper layer, vector(packetBytes)"
vector 322 RoutingScenario.node[10].udp packetReceived:vector(packetBytes) ETV
attr interpolationmode none
attr source packetReceived
attr title "packets received, vector(packetBytes)"
vector 323 RoutingScenario.node[10].udp passedUpPk:vector(count) ETV
attr interpolationmode none
attr source packetSentToUpper
attr title "packets passed up, vector(count)"
vector 324 RoutingScenario.node[11].wlan[0].radio radioMode:vector ETV
attr interpolationmode sample-hold
attr source radioModeChanged
attr title "Radio mode, vector"
vector 325 RoutingScenario.node[11].wlan[0].radio radioChannel:vector ETV
attr interpolationmode sample-hold
attr source radioChannelChanged
attr title "Radio channel, vector"
vector 326 RoutingScenario.node[11].wlan[0].radio receptionState:vector ETV
attr interpolationmode sample-hold
attr source receptionStateChanged
attr title "Radio reception state, vector"
vector 327 RoutingScenario.node[11].wlan[0].mac.dcf.recoveryProcedure contentionWindowChanged:vector ETV
attr interpolationmode sample-hold
attr title "contention window, vector"
vector 328 RoutingScenario.node[12].wlan[0].radio radioMode:vector ETV
attr interpolationmode sample-hold
attr source radioModeChanged
attr title "Radio mode, vector"
vector 329 RoutingScenario.node[12].wlan[0].radio radioChannel:vector ETV
attr interpolationmode sample-hold
attr source radioChannelChanged
attr title "Radio channel, vector"
vector 330 RoutingScenario.node[12].wlan[0].radio receptionState:vector ETV
attr interpolationmode sample-hold
attr source receptionStateChanged
attr title "Radio reception state, vector"
vector 331 RoutingScenario.node[12].wlan[0].mac.dcf.recoveryProcedure contentionWindowChanged:vector ETV
attr interpolationmode sample-hold
attr title "contention window, vector"
vector 332 RoutingScenario.node[13].wlan[0].radio radioMode:vector ETV
attr interpolationmode sample-hold
attr source radioModeChanged
attr title "Radio mode, vector"
vector 333 RoutingScenario.node[13].wlan[0].radio radioChannel:vector ETV
attr interpolationmode sample-hold
attr source radioChannelChanged
attr title "Radio channel, vector"
vector 334 RoutingScenario.node[13].wlan[0].radio receptionState:vector ETV
attr interpolationmode sample-hold
attr source receptionStateChanged
attr title "Radio reception state, vector"
vector 335 RoutingScenario.node[13].wlan[0].mac.dcf.recoveryProcedure contentionWindowChanged:vector ETV
attr interpolationmode sample-hold
attr title "contention window, vector"
vector 336 RoutingScenario.node[14].wlan[0].radio radioMode:vector ETV
attr interpolationmode sample-hold
attr source radioModeChanged
attr title "Radio mode, vector"
vector 337 RoutingScenario.node[14].wlan[0].radio radioChannel:vector ETV
attr interpolationmode sample-hold
attr source radioChannelChanged
attr title "Radio channel, vector"
vector 338 RoutingScenario.node[14].wlan[0].radio receptionState:vector ETV
attr interpolationmode sample-hold
attr source receptionStateChanged
attr title "Radio reception state, vector"
vector 339 RoutingScenario.node[14].wlan[0].mac.dcf.recoveryProcedure contentionWindowChanged:vector ETV
attr interpolationmode sample-hold
attr title "contention window, vector"
vector 340 RoutingScenario.node[15].wlan[0].radio radioMode:vector ETV
attr interpolationmode sample-hold
attr source radioModeChanged
attr title "Radio mode, vector"
vector 341 RoutingScenario.node[15].wlan[0].radio radioChannel:vector ETV
attr interpolationmode sample-hold
attr source radioChannelChanged
attr title "Radio channel, vector"
vector 342 RoutingScenario.node[15].wlan[0].radio receptionState:vector ETV
attr interpolationmode sample-hold
attr source receptionStateChanged
attr title "Radio reception state, vector"
vector 343 RoutingScenario.node[15].wlan[0].mac.dcf.recoveryProcedure contentionWindowChanged:vector ETV
attr interpolationmode sample-hold
attr title "contention window, vector"
vector 344 RoutingScenario.node[16].wlan[0].radio radioMode:vector ETV
attr interpolationmode sample-hold
attr source radioModeChanged
attr title "Radio mode, vector"
vector 345 RoutingScenario.node[16].wlan[0].radio radioChannel:vector ETV
attr interpolationmode sample-hold
attr source radioChannelChanged
attr title "Radio channel, vector"
vector 346 RoutingScenario.node[16].wlan[0].radio receptionState:vector ETV
attr interpolationmode sample-hold
attr source receptionStateChanged
attr title "Radio reception state, vector"
vector 347 RoutingScenario.node[16].wlan[0].mac.dcf.recoveryProcedure contentionWindowChanged:vector ETV
attr interpolationmode sample-hold
attr title "contention window, vector"
vector 348 RoutingScenario.node[17].wlan[0].radio radioMode:vector ETV
attr interpolationmode sample-hold
attr source radioModeChanged
attr title "Radio mode, vector"
vector 349 RoutingScenario.node[17].wlan[0].radio radioChannel:vector ETV
attr interpolationmode sample-hold
attr source radioChannelChanged
attr title "Radio channel, vector"
vector 350 RoutingScenario.node[17].wlan[0].radio receptionState:vector ETV
attr interpolationmode sample-hold
attr source receptionStateChanged
attr title "Radio reception state, vector"
vector 351 RoutingScenario.node[17].wlan[0].mac.dcf.recoveryProcedure contentionWindowChanged:vector ETV
attr interpolationmode sample-hold
attr title "contention window, vector"
vector 352 RoutingScenario.node[18].wlan[0].radio radioMode:vector ETV
attr interpolationmode sample-hold
attr source radioModeChanged
attr title "Radio mode, vector"
vector 353 RoutingScenario.node[18].wlan[0].radio radioChannel:vector ETV
attr interpolationmode sample-hold
attr source radioChannelChanged
attr title "Radio channel, vector"
vector 354 RoutingScenario.node[18].wlan[0].radio receptionState:vector ETV
attr interpolationmode sample-hold
attr source receptionStateChanged
attr title "Radio reception state, vector"
vector 355 RoutingScenario.node[18].wlan[0].mac.dcf.recoveryProcedure contentionWindowChanged:vector ETV
attr interpolationmode sample-hold
attr title "contention window, vector"
vector 356 RoutingScenario.node[19].wlan[0].radio radioMode:vector ETV
attr interpolationmode sample-hold
attr source radioModeChanged
attr title "Radio mode, vector"
vector 357 RoutingScenario.node[19].wlan[0].radio radioChannel:vector ETV
attr interpolationmode sample-hold
attr source radioChannelChanged
attr title "Radio channel, vector"
vector 358 RoutingScenario.node[19].wlan[0].radio receptionState:vector ETV
attr interpolationmode sample-hold
attr source receptionStateChanged
attr title "Radio reception state, vector"
vector 359 RoutingScenario.node[19].wlan[0].mac.dcf.recoveryProcedure contentionWindowChanged:vector ETV
attr interpolationmode sample-hold
attr title "contention window, vector"
vector 360 RoutingScenario.node[11].app[0] packetSent:vector(packetBytes) ETV
attr interpolationmode none
attr source packetSent
attr title "packets sent, vector(packetBytes)"
vector 361 RoutingScenario.node[12].app[0] packetSent:vector(packetBytes) ETV
attr interpolationmode none
attr source packetSent
attr title "packets sent, vector(packetBytes)"
vector 362 RoutingScenario.node[13].app[0] packetSent:vector(packetBytes) ETV
attr interpolationmode none
attr source packetSent
attr title "packets sent, vector(packetBytes)"
vector 363 RoutingScenario.node[14].app[0] packetSent:vector(packetBytes) ETV
attr interpolationmode none
attr source packetSent
attr title "packets sent, vector(packetBytes)"
vector 364 RoutingScenario.node[15].app[0] packetSent:vector(packetBytes) ETV
attr interpolationmode none
attr source packetSent
attr title "packets sent, vector(packetBytes)"
vector 365 RoutingScenario.node[16].app[0] packetSent:vector(packetBytes) ETV
attr interpolationmode none
attr source packetSent
attr title "packets sent, vector(packetBytes)"
vector 366 RoutingScenario.node[17].app[0] packetSent:vector(packetBytes) ETV
attr interpolationmode none
attr source packetSent
attr title "packets sent, vector(packetBytes)"
vector 367 RoutingScenario.node[18].app[0] packetSent:vector(packetBytes) ETV
attr interpolationmode none
attr source packetSent
attr title "packets sent, vector(packetBytes)"
vector 368 RoutingScenario.node[19].app[0] packetSent:vector(packetBytes) ETV
attr interpolationmode none
attr source packetSent
attr title "packets sent, vector(packetBytes)"
vector 369 RoutingScenario.node[11].udp packetSent:vector(packetBytes) ETV
attr interpolationmode none
attr source packetSent
attr title "packets sent, vector(packetBytes)"
vector 370 RoutingScenario.node[12].udp packetSent:vector(packetBytes) ETV
attr interpolationmode none
attr source packetSent
attr title "packets sent, vector(packetBytes)"
vector 371 RoutingScenario.node[13].udp packetSent:vector(packetBytes) ETV
attr interpolationmode none
attr source packetSent
attr title "packets sent, vector(packetBytes)"
vector 372 RoutingScenario.node[14].udp packetSent:vector(packetBytes) ETV
attr interpolationmode none
attr source packetSent
attr title "packets sent, vector(packetBytes)"
vector 373 RoutingScenario.node[15].udp packetSent:vector(packetBytes) ETV
attr interpolationmode none
attr source packetSent
attr title "packets sent, vector(packetBytes)"
vector 374 RoutingScenario.node[16].udp packetSent:vector(packetBytes) ETV
attr interpolationmode none
attr source packetSent
attr title "packets sent, vector(packetBytes)"
vector 375 RoutingScenario.node[17].udp packetSent:vector(packetBytes) ETV
attr interpolationmode none
attr source packetSent
attr title "packets sent, vector(packetBytes)"
vector 376 RoutingScenario.node[18].udp packetSent:vector(packetBytes) ETV
attr interpolationmode none
attr source packetSent
attr title "packets sent, vector(packetBytes)"
vector 377 RoutingScenario.node[19].udp packetSent:vector(packetBytes) ETV
attr interpolationmode none
attr source packetSent
attr title "packets sent, vector(packetBytes)"
vector 378 RoutingScenario.node[16].wlan[0].mac packetReceivedFromUpper:vector(packetBytes) ETV
attr interpolationmode none
attr title "packets received from upper layer, vector(packetBytes)"
vector 379 RoutingScenario.node[16].wlan[0].mac.dcf.channelAccess.pendingQueue packetPushed:vector(packetBytes) ETV
attr interpolationmode none
attr title "packet pushed, vector(packetBytes)"
vector 380 RoutingScenario.node[16].wlan[0].mac.dcf.channelAccess.pendingQueue queueLength:vector ETV
attr interpolationmode sample-hold
attr source "count(packetPushed) - count(packetPopped) - count(packetRemoved) - count(packetDropped)"
attr title "queue length, vector"
vector 381 RoutingScenario.node[16].wlan[0].mac.dcf.channelAccess.contention backoffPeriodGenerated:vector ETV
attr interpolationmode none
attr title "backoff periods, vector"
vector 382 RoutingScenario.node[16].wlan[0].mac.dcf.channelAccess.contention backoffActive:vector ETV
attr interpolationmode sample-hold
attr source count(backoffStarted)-count(backoffStopped)
attr title "backoff active, vector"
vector 383 RoutingScenario.node[16].wlan[0].mac.dcf.channelAccess.pendingQueue packetPopped:vector(packetBytes) ETV
attr interpolationmode none
attr title "packet popped, vector(packetBytes)"
vector 384 RoutingScenario.node[16].wlan[0].mac.dcf.channelAccess.pendingQueue queueingTime:vector ETV
attr interpolationmode none
attr source queueingTime(packetPopped)
attr title "queueing times, vector"
attr unit s
vector 385 RoutingScenario.node[16].wlan[0].mac.dcf.channelAccess.inProgressFrames queueLength:vector ETV
attr interpolationmode sample-hold
attr source "count(packetEnqueued) - count(packetDequeued)"
attr title "queue length, vector"
vector 386 RoutingScenario.node[16].wlan[0].mac.dcf datarateSelected:vector ETV
attr interpolationmode none
attr title "datarates selected, vector"
vector 387 RoutingScenario.node[16].wlan[0].mac packetSentToLower:vector(packetBytes) ETV
attr interpolationmode none
attr title "packets sent to lower layer, vector(packetBytes)"
vector 388 RoutingScenario.node[16].wlan[0].mac.dcf frameSequenceActive:vector ETV
attr interpolationmode sample-hold
attr source count(frameSequenceStarted)-count(frameSequenceFinished)
attr title "frame sequence active, vector"
vector 389 RoutingScenario.node[16].wlan[0].radio transmissionState:vector ETV
attr interpolationmode sample-hold
attr source transmissionStateChanged
attr title "Radio transmission state, vector"
[...]
546	280198 27 1313 1313 0.302284110174 0.302284110174 1 82 82 82 6724
547	280225 27 1313 1313 0.302284110174 0.302284110174 1 82 82 82 6724
548	280252 889 1331 7470 0.30232531033 0.539745245014 32 14 1058 16152 16796960
549	281141 1332 1331 7356 0.30232531033 0.53937774161 48 0 8.8e-05 0.001408 1.23904e-07
550	282473 890 1334 7473 0.302325560816 0.539745496716 32 14 1058 16152 16796960
551	283363 862 1380 7411 0.302413560816 0.539656993312 32 14 86 1592 120160
552	284225 862 1383 7414 0.302413811302 0.539657245014 32 14 86 1592 120160
553	285087 862 1385 7421 0.302414608448 0.539658041264 32 14 86 1592 120160
554	285949 862 1385 7421 0.302414608448 0.539658041264 32 14 86 1592 120160
555	286811 862 1385 7421 0.302414608448 0.539658041264 32 14 86 1592 120160
556	287673 1341 1432 7469 0.302632560816 0.539744993312 48 0 8.8e-05 0.001408 1.23904e-07
557	289014 27 1438 1438 0.302632811302 0.302632811302 1 28 28 28 784
558	289041 26 1438 1438 0.302632811302 0.302632811302 1 1 1 1 1
559	289067 1341 1443 7474 0.302633608448 0.539746041264 48 0 8.8e-05 0.001408 1.23904e-07
560	290408 27 1711 1711 0.304459616791 0.304459616791 1 54 54 54 2916
561	290435 27 1711 1711 0.304459616791 0.304459616791 1 82 82 82 6724
562	290462 52 1711 1713 0.304459616791 0.304459616791 2 0 1 1 1
563	290514 26 1711 1711 0.304459616791 0.304459616791 1 9 9 9 81
564	290540 52 1711 1712 0.304459616791 0.304459616791 2 0 1 1 1
565	290592 27 1713 1713 0.304459616791 0.304459616791 1 82 82 82 6724
566	290619 26 1713 1713 0.304459616791 0.304459616791 1 0 0 0 0
567	290645 52 1713 1763 0.304459616791 0.304563616791 2 0 1 1 1
568	290697 33 1713 1713 0.304459616791 0.304459616791 1 12000000 12000000 12000000 1.44e+14
569	290730 27 1713 1713 0.304459616791 0.304459616791 1 82 82 82 6724
570	290757 52 1713 1763 0.304459616791 0.304563616791 2 0 1 1 1
571	290809 104 1714 1764 0.304459616791 0.304563616791 4 0 2 4 6
572	290913 27 1739 1739 0.304482732991 0.304482732991 1 54 54 54 2916
573	290940 27 1739 1739 0.304482732991 0.304482732991 1 82 82 82 6724
574	290967 52 1739 1741 0.304482732991 0.304482732991 2 0 1 1 1
575	291019 26 1739 1739 0.304482732991 0.304482732991 1 7 7 7 49
576	291045 52 1739 1740 0.304482732991 0.304482732991 2 0 1 1 1
577	291097 27 1741 1741 0.304482732991 0.304482732991 1 82 82 82 6724
578	291124 26 1741 1741 0.304482732991 0.304482732991 1 0 0 0 0
579	291150 52 1741 1800 0.304482732991 0.304586732991 2 0 1 1 1
580	291202 33 1741 1741 0.304482732991 0.304482732991 1 12000000 12000000 12000000 1.44e+14
581	291235 27 1741 1741 0.304482732991 0.304482732991 1 82 82 82 6724
582	291262 52 1741 1800 0.304482732991 0.304586732991 2 0 1 1 1
583	291314 104 1742 1801 0.304482732991 0.304586732991 4 0 2 4 6
584	291418 27 1763 1763 0.304563616791 0.304563616791 1 82 82 82 6724
585	291445 27 1763 1763 0.304563616791 0.304563616791 1 82 82 82 6724
586	291472 27 1763 1763 0.304563616791 0.304563616791 1 82 82 82 6724
587	291499 27 1763 1763 0.304563616791 0.304563616791 1 82 82 82 6724
588	291526 33 1763 1763 0.304563616791 0.304563616791 1 0.000104 0.000104 0.000104 1.0816e-08
589	291559 27 1784 1784 0.304564655839 0.304564655839 1 82 82 82 6724
590	291586 27 1784 1784 0.304564655839 0.304564655839 1 82 82 82 6724
591	291613 27 1800 1800 0.304586732991 0.304586732991 1 82 82 82 6724
592	291640 27 1800 1800 0.304586732991 0.304586732991 1 82 82 82 6724
593	291667 27 1800 1800 0.304586732991 0.304586732991 1 82 82 82 6724
594	291694 27 1800 1800 0.304586732991 0.304586732991 1 82 82 82 6724
595	291721 33 1800 1800 0.304586732991 0.304586732991 1 0.000104 0.000104 0.000104 1.0816e-08
596	291754 27 1803 1803 0.304587331271 0.304587331271 1 82 82 82 6724
597	291781 27 1803 1803 0.304587331271 0.304587331271 1 82 82 82 6724
598	291808 27 1803 1803 0.304587331271 0.304587331271 1 82 82 82 6724
599	291835 27 1803 1803 0.304587331271 0.304587331271 1 82 82 82 6724
600	291862 27 1803 1803 0.304587331271 0.304587331271 1 54 54 54 2916
601	291889 27 1806 1806 0.304587331271 0.304587331271 1 32 32 32 1024
602	291916 26 1806 1806 0.304587331271 0.304587331271 1 1 1 1 1
603	291942 27 1812 1812 0.304587373485 0.304587373485 1 32 32 32 1024
604	291969 26 1812 1812 0.304587373485 0.304587373485 1 1 1 1 1
605	291995 27 1815 1815 0.304587518568 0.304587518568 1 82 82 82 6724
606	292022 27 1815 1815 0.304587518568 0.304587518568 1 82 82 82 6724
607	292049 27 1839 1839 0.304920211177 0.304920211177 1 54 54 54 2916
608	292076 27 1839 1839 0.304920211177 0.304920211177 1 82 82 82 6724
609	292103 52 1839 1841 0.304920211177 0.304920211177 2 0 1 1 1
610	292155 27 1839 1839 0.304920211177 0.304920211177 1 15 15 15 225
611	292182 52 1839 1840 0.304920211177 0.304920211177 2 0 1 1 1
612	292234 27 1841 1841 0.304920211177 0.304920211177 1 82 82 82 6724
613	292261 26 1841 1841 0.304920211177 0.304920211177 1 0 0 0 0
614	292287 52 1841 1863 0.304920211177 0.305024211177 2 0 1 1 1
615	292339 33 1841 1841 0.304920211177 0.304920211177 1 12000000 12000000 12000000 1.44e+14
616	292372 27 1841 1841 0.304920211177 0.304920211177 1 82 82 82 6724
617	292399 52 1841 1863 0.304920211177 0.305024211177 2 0 1 1 1
618	292451 104 1842 1864 0.304920211177 0.305024211177 4 0 2 4 6
619	292555 27 1863 1863 0.305024211177 0.305024211177 1 82 82 82 6724
620	292582 27 1863 1863 0.305024211177 0.305024211177 1 82 82 82 6724
621	292609 27 1863 1863 0.305024211177 0.305024211177 1 82 82 82 6724
622	292636 27 1863 1863 0.305024211177 0.305024211177 1 82 82 82 6724
623	292663 33 1863 1863 0.305024211177 0.305024211177 1 0.000104 0.000104 0.000104 1.0816e-08
624	292696 97 3024 3348 0.4 0.404340376584 5 0 3 7 17
625	292793 15 3024 3024 0.4 0.4 1 3 3 3 9
626	292808 119 3024 6175 0.4 0.521341887709 5 0 3 6 12
627	292927 16 3024 3024 0.4 0.4 1 15 15 15 225
628	292943 95 3024 3261 0.4 0.40399103779 5 0 3 7 17
629	293038 15 3024 3024 0.4 0.4 1 3 3 3 9
630	293053 273 3024 6703 0.4 0.523232306028 11 0 3 18 42
631	293326 16 3024 3024 0.4 0.4 1 15 15 15 225
632	293342 97 3024 3168 0.4 0.403510795667 5 0 3 7 17
633	293439 15 3024 3024 0.4 0.4 1 3 3 3 9
634	293454 275 3024 6858 0.4 0.523587339764 11 0 3 18 42
635	293729 16 3024 3024 0.4 0.4 1 15 15 15 225
636	293745 97 3024 3094 0.4 0.401401112828 5 0 3 7 17
637	293842 15 3024 3024 0.4 0.4 1 3 3 3 9
638	293857 119 3024 6351 0.4 0.521910575726 5 0 3 6 12
639	293976 16 3024 3024 0.4 0.4 1 15 15 15 225
640	293992 366 3027 7500 0.4 0.541027935284 13 1000 1000 13000 13000000
641	294358 421 3030 7530 0.4 0.544580836219 15 1000 1000 15000 15000000
642	294779 221 3033 5888 0.4 0.511735143887 8 1000 1000 8000 8000000
643	295000 220 3036 7512 0.4 0.542478238967 8 1000 1000 8000 8000000
644	295220 393 3038 7501 0.4 0.541027935284 14 32 1008 13136 13209856
645	295613 447 3040 7531 0.4 0.544580836219 16 32 1008 15152 15241984
646	296060 248 3042 5889 0.4 0.511735143887 9 32 1008 8096 8129536
647	296308 247 3044 7513 0.4 0.542478238967 9 32 1008 8096 8129536
648	296555 27 3062 3062 0.401297112828 0.401297112828 1 54 54 54 2916
649	296582 27 3062 3062 0.401297112828 0.401297112828 1 82 82 82 6724
650	296609 52 3062 3064 0.401297112828 0.401297112828 2 0 1 1 1
651	296661 27 3062 3062 0.401297112828 0.401297112828 1 12 12 12 144
652	296688 52 3062 3063 0.401297112828 0.401297112828 2 0 1 1 1
653	296740 27 3064 3064 0.401297112828 0.401297112828 1 82 82 82 6724
654	296767 26 3064 3064 0.401297112828 0.401297112828 1 0 0 0 0
655	296793 52 3064 3093 0.401297112828 0.401401112828 2 0 1 1 1
656	296845 33 3064 3064 0.401297112828 0.401297112828 1 12000000 12000000 12000000 1.44e+14
657	296878 27 3064 3064 0.401297112828 0.401297112828 1 82 82 82 6724
658	296905 52 3064 3093 0.401297112828 0.401401112828 2 0 1 1 1
659	296957 104 3065 3094 0.401297112828 0.401401112828 4 0 2 4 6
660	297061 27 3093 3093 0.401401112828 0.401401112828 1 82 82 82 6724
661	297088 27 3093 3093 0.401401112828 0.401401112828 1 82 82 82 6724
662	297115 27 3093 3093 0.401401112828 0.401401112828 1 82 82 82 6724
663	297142 27 3093 3093 0.401401112828 0.401401112828 1 82 82 82 6724
664	297169 33 3093 3093 0.401401112828 0.401401112828 1 0.000104 0.000104 0.000104 1.0816e-08
665	297202 26 3096 3096 0.40140116115 0.40140116115 1 82 82 82 6724
666	297228 26 3096 3096 0.40140116115 0.40140116115 1 82 82 82 6724
667	297254 26 3096 3096 0.40140116115 0.40140116115 1 82 82 82 6724
668	297280 26 3096 3096 0.40140116115 0.40140116115 1 82 82 82 6724
669	297306 26 3096 3096 0.40140116115 0.40140116115 1 82 82 82 6724
670	297332 26 3096 3096 0.40140116115 0.40140116115 1 54 54 54 2916
671	297358 26 3099 3099 0.40140116115 0.40140116115 1 32 32 32 1024
672	297384 25 3099 3099 0.40140116115 0.40140116115 1 1 1 1 1
673	297409 27 3136 3136 0.403406795667 0.403406795667 1 54 54 54 2916
674	297436 27 3136 3136 0.403406795667 0.403406795667 1 82 82 82 6724
675	297463 52 3136 3138 0.403406795667 0.403406795667 2 0 1 1 1
676	297515 27 3136 3136 0.403406795667 0.403406795667 1 10 10 10 100
677	297542 52 3136 3137 0.403406795667 0.403406795667 2 0 1 1 1
678	297594 27 3138 3138 0.403406795667 0.403406795667 1 82 82 82 6724
679	297621 26 3138 3138 0.403406795667 0.403406795667 1 0 0 0 0
680	297647 52 3138 3167 0.403406795667 0.403510795667 2 0 1 1 1
681	297699 33 3138 3138 0.403406795667 0.403406795667 1 12000000 12000000 12000000 1.44e+14
682	297732 27 3138 3138 0.403406795667 0.403406795667 1 82 82 82 6724
683	297759 52 3138 3167 0.403406795667 0.403510795667 2 0 1 1 1
684	297811 104 3139 3168 0.403406795667 0.403510795667 4 0 2 4 6
685	297915 27 3167 3167 0.403510795667 0.403510795667 1 82 82 82 6724
686	297942 27 3167 3167 0.403510795667 0.403510795667 1 82 82 82 6724
687	297969 27 3167 3167 0.403510795667 0.403510795667 1 82 82 82 6724
688	297996 27 3167 3167 0.403510795667 0.403510795667 1 82 82 82 6724
689	298023 33 3167 3167 0.403510795667 0.403510795667 1 0.000104 0.000104 0.000104 1.0816e-08
690	298056 108 3188 6704 0.403511495079 0.523232306028 4 82 82 328 26896
691	298164 108 3188 6704 0.403511495079 0.523232306028 4 82 82 328 26896
692	298272 108 3188 6704 0.403511495079 0.523232306028 4 82 82 328 26896
693	298380 108 3188 6704 0.403511495079 0.523232306028 4 82 82 328 26896
694	298488 108 3188 6704 0.403511495079 0.523232306028 4 82 82 328 26896
695	298596 108 3188 6704 0.403511495079 0.523232306028 4 54 54 216 11664
696	298704 108 3191 6707 0.403511495079 0.523232306028 4 32 32 128 4096
697	298812 104 3191 6707 0.403511495079 0.523232306028 4 1 4 10 30
698	298916 26 3232 3232 0.40388703779 0.40388703779 1 54 54 54 2916
699	298942 26 3232 3232 0.40388703779 0.40388703779 1 82 82 82 6724
700	298968 50 3232 3234 0.40388703779 0.40388703779 2 0 1 1 1
701	299018 26 3232 3232 0.40388703779 0.40388703779 1 10 10 10 100
702	299044 50 3232 3233 0.40388703779 0.40388703779 2 0 1 1 1
703	299094 26 3234 3234 0.40388703779 0.40388703779 1 82 82 82 6724
704	299120 25 3234 3234 0.40388703779 0.40388703779 1 0 0 0 0
705	299145 50 3234 3260 0.40388703779 0.40399103779 2 0 1 1 1
706	299195 32 3234 3234 0.40388703779 0.40388703779 1 12000000 12000000 12000000 1.44e+14
707	299227 26 3234 3234 0.40388703779 0.40388703779 1 82 82 82 6724
708	299253 50 3234 3260 0.40388703779 0.40399103779 2 0 1 1 1
709	299303 100 3235 3261 0.40388703779 0.40399103779 4 0 2 4 6
710	299403 26 3260 3260 0.40399103779 0.40399103779 1 82 82 82 6724
711	299429 26 3260 3260 0.40399103779 0.40399103779 1 82 82 82 6724
712	299455 26 3260 3260 0.40399103779 0.40399103779 1 82 82 82 6724
713	299481 26 3260 3260 0.40399103779 0.40399103779 1 82 82 82 6724
714	299507 32 3260 3260 0.40399103779 0.40399103779 1 0.000104 0.000104 0.000104 1.0816e-08
715	299539 108 3281 6859 0.403991737202 0.523587339764 4 82 82 328 26896
716	299647 108 3281 6859 0.403991737202 0.523587339764 4 82 82 328 26896
717	299755 108 3281 6859 0.403991737202 0.523587339764 4 82 82 328 26896
718	299863 108 3281 6859 0.403991737202 0.523587339764 4 82 82 328 26896
719	299971 108 3281 6859 0.403991737202 0.523587339764 4 82 82 328 26896
720	300079 108 3281 6859 0.403991737202 0.523587339764 4 54 54 216 11664
721	300187 108 3284 6862 0.403991737202 0.523587339764 4 32 32 128 4096
722	300295 104 3284 6862 0.403991737202 0.523587339764 4 1 4 10 30
723	300399 27 3319 3319 0.404236376584 0.404236376584 1 54 54 54 2916
724	300426 27 3319 3319 0.404236376584 0.404236376584 1 82 82 82 6724
725	300453 52 3319 3321 0.404236376584 0.404236376584 2 0 1 1 1
726	300505 27 3319 3319 0.404236376584 0.404236376584 1 14 14 14 196
727	300532 52 3319 3320 0.404236376584 0.404236376584 2 0 1 1 1
728	300584 27 3321 3321 0.404236376584 0.404236376584 1 82 82 82 6724
729	300611 26 3321 3321 0.404236376584 0.404236376584 1 0 0 0 0
730	300637 52 3321 3347 0.404236376584 0.404340376584 2 0 1 1 1
731	300689 33 3321 3321 0.404236376584 0.404236376584 1 12000000 12000000 12000000 1.44e+14
732	300722 27 3321 3321 0.404236376584 0.404236376584 1 82 82 82 6724
733	300749 52 3321 3347 0.404236376584 0.404340376584 2 0 1 1 1
734	300801 104 3322 3348 0.404236376584 0.404340376584 4 0 2 4 6
735	300905 27 3347 3347 0.404340376584 0.404340376584 1 82 82 82 6724
736	300932 27 3347 3347 0.404340376584 0.404340376584 1 82 82 82 6724
737	300959 27 3347 3347 0.404340376584 0.404340376584 1 82 82 82 6724
738	300986 27 3347 3347 0.404340376584 0.404340376584 1 82 82 82 6724
739	301013 33 3347 3347 0.404340376584 0.404340376584 1 0.000104 0.000104 0.000104 1.0816e-08
740	301046 27 6176 6176 0.521341887709 0.521341887709 1 82 82 82 6724
741	301073 27 6176 6176 0.521341887709 0.521341887709 1 82 82 82 6724
742	301100 27 6176 6176 0.521341887709 0.521341887709 1 82 82 82 6724
743	301127 27 6176 6176 0.521341887709 0.521341887709 1 82 82 82 6724
744	301154 27 6176 6176 0.521341887709 0.521341887709 1 82 82 82 6724
745	301181 27 6176 6176 0.521341887709 0.521341887709 1 54 54 54 2916
746	301208 27 6179 6179 0.521341887709 0.521341887709 1 32 32 32 1024
747	301235 26 6179 6179 0.521341887709 0.521341887709 1 1 1 1 1
748	301261 27 6352 6352 0.521910575726 0.521910575726 1 82 82 82 6724
749	301288 27 6352 6352 0.521910575726 0.521910575726 1 82 82 82 6724
750	301315 27 6352 6352 0.521910575726 0.521910575726 1 82 82 82 6724
751	301342 27 6352 6352 0.521910575726 0.521910575726 1 82 82 82 6724
752	301369 27 6352 6352 0.521910575726 0.521910575726 1 82 82 82 6724
753	301396 27 6352 6352 0.521910575726 0.521910575726 1 54 54 54 2916
754	301423 27 6355 6355 0.521910575726 0.521910575726 1 32 32 32 1024
755	301450 26 6355 6355 0.521910575726 0.521910575726 1 1 1 1 1
756	301476 27 6773 6773 0.523410151783 0.523410151783 1 82 82 82 6724
757	301503 27 6773 6773 0.523410151783 0.523410151783 1 82 82 82 6724
758	301530 27 6773 6773 0.523410151783 0.523410151783 1 82 82 82 6724
759	301557 27 6773 6773 0.523410151783 0.523410151783 1 82 82 82 6724
760	301584 27 6773 6773 0.523410151783 0.523410151783 1 82 82 82 6724
761	301611 27 6773 6773 0.523410151783 0.523410151783 1 54 54 54 2916
762	301638 27 6776 6776 0.523410151783 0.523410151783 1 32 32 32 1024
763	301665 26 6776 6776 0.523410151783 0.523410151783 1 1 1 1 1
vector 764 RoutingScenario.node[0].app[0] throughput:vector ETV
attr source throughput(packetReceived)
attr title "throughput, vector"
attr unit bps
vector 765 RoutingScenario.node[1].app[0] throughput:vector ETV
attr source throughput(packetReceived)
attr title "throughput, vector"
attr unit bps
vector 766 RoutingScenario.node[2].app[0] throughput:vector ETV
attr source throughput(packetReceived)
attr title "throughput, vector"
attr unit bps
vector 767 RoutingScenario.node[3].app[0] throughput:vector ETV
attr source throughput(packetReceived)
attr title "throughput, vector"
attr unit bps
vector 768 RoutingScenario.node[4].app[0] throughput:vector ETV
attr source throughput(packetReceived)
attr title "throughput, vector"
attr unit bps
vector 769 RoutingScenario.node[5].app[0] throughput:vector ETV
attr source throughput(packetReceived)
attr title "throughput, vector"
attr unit bps
vector 770 RoutingScenario.node[6].app[0] throughput:vector ETV
attr source throughput(packetReceived)
attr title "throughput, vector"
attr unit bps
vector 771 RoutingScenario.node[7].app[0] throughput:vector ETV
attr source throughput(packetReceived)
attr title "throughput, vector"
attr unit bps
vector 772 RoutingScenario.node[8].app[0] throughput:vector ETV
attr source throughput(packetReceived)
attr title "throughput, vector"
attr unit bps
vector 773 RoutingScenario.node[9].app[0] throughput:vector ETV
attr source throughput(packetReceived)
attr title "throughput, vector"
attr unit bps
vector 774 RoutingScenario.node[10].app[0] throughput:vector ETV
attr source throughput(packetReceived)
attr title "throughput, vector"
attr unit bps
vector 775 RoutingScenario.node[11].app[0] throughput:vector ETV
attr source throughput(packetReceived)
attr title "throughput, vector"
attr unit bps
vector 776 RoutingScenario.node[12].app[0] throughput:vector ETV
attr source throughput(packetReceived)
attr title "throughput, vector"
attr unit bps
vector 777 RoutingScenario.node[13].app[0] throughput:vector ETV
attr source throughput(packetReceived)
attr title "throughput, vector"
attr unit bps
vector 778 RoutingScenario.node[14].app[0] throughput:vector ETV
attr source throughput(packetReceived)
attr title "throughput, vector"
attr unit bps
vector 779 RoutingScenario.node[15].app[0] throughput:vector ETV
attr source throughput(packetReceived)
attr title "throughput, vector"
attr unit bps
vector 780 RoutingScenario.node[16].app[0] throughput:vector ETV
attr source throughput(packetReceived)
attr title "throughput, vector"
attr unit bps
vector 781 RoutingScenario.node[17].app[0] throughput:vector ETV
attr source throughput(packetReceived)
attr title "throughput, vector"
attr unit bps
vector 782 RoutingScenario.node[18].app[0] throughput:vector ETV
attr source throughput(packetReceived)
attr title "throughput, vector"
attr unit bps
vector 783 RoutingScenario.node[19].app[0] throughput:vector ETV
attr source throughput(packetReceived)
attr title "throughput, vector"
attr unit bps
vector 784 RoutingScenario.node[20].app[0] throughput:vector ETV
attr source throughput(packetReceived)
attr title "throughput, vector"
attr unit bps
vector 785 RoutingScenario.node[21].app[0] throughput:vector ETV
attr source throughput(packetReceived)
attr title "throughput, vector"
attr unit bps
vector 786 RoutingScenario.node[22].app[0] throughput:vector ETV
attr source throughput(packetReceived)
attr title "throughput, vector"
attr unit bps
vector 787 RoutingScenario.node[23].app[0] throughput:vector ETV
attr source throughput(packetReceived)
attr title "throughput, vector"
attr unit bps
764	305281 101 7572 7572 0.1 0.549877470857 6 0 0 0 0
765	305382 101 7572 7572 0.1 0.549877470857 6 0 0 0 0
766	305483 101 7572 7572 0.1 0.549877470857 6 0 0 0 0
767	305584 101 7572 7572 0.1 0.549877470857 6 0 0 0 0
768	305685 101 7572 7572 0.1 0.549877470857 6 0 0 0 0
769	305786 101 7572 7572 0.1 0.549877470857 6 0 0 0 0
770	305887 101 7572 7572 0.1 0.549877470857 6 0 0 0 0
771	305988 101 7572 7572 0.1 0.549877470857 6 0 0 0 0
772	306089 101 7572 7572 0.1 0.549877470857 6 0 0 0 0
773	306190 101 7572 7572 0.1 0.549877470857 6 0 0 0 0
774	306291 101 7572 7572 0.1 0.549877470857 6 0 0 0 0
775	306392 101 7572 7572 0.1 0.549877470857 6 0 0 0 0
776	306493 101 7572 7572 0.1 0.549877470857 6 0 0 0 0
777	306594 101 7572 7572 0.1 0.549877470857 6 0 0 0 0
778	306695 101 7572 7572 0.1 0.549877470857 6 0 0 0 0
779	306796 101 7572 7572 0.1 0.549877470857 6 0 0 0 0
780	306897 101 7572 7572 0.1 0.549877470857 6 0 0 0 0
781	306998 101 7572 7572 0.1 0.549877470857 6 0 0 0 0
782	307099 101 7572 7572 0.1 0.549877470857 6 0 0 0 0
783	307200 101 7572 7572 0.1 0.549877470857 6 0 0 0 0
784	307301 101 7572 7572 0.1 0.549877470857 6 0 0 0 0
785	307402 101 7572 7572 0.1 0.549877470857 6 0 0 0 0
786	307503 101 7572 7572 0.1 0.549877470857 6 0 0 0 0
787	307604 101 7572 7572 0.1 0.549877470857 6 0 0 0 0

