version 2
run canvas-0-20220714-08:04:52-2598
attr configname canvas
attr datetime 20220714-08:04:52
attr experiment canvas
attr inifile omnetpp.ini
attr iterationvars ""
attr iterationvarsf ""
attr measurement ""
attr network RoutingScenario
attr processid 2598
attr repetition 0
attr replication #0
attr resultdir results
attr runnumber 0
attr seedset 0
param *.visualizer.*.obstacleLossVisualizer.displayIntersections true
param *.visualizer.*.obstacleLossVisualizer.displayFaceNormalVectors true
param *.visualizer.*.obstacleLossVisualizer.intersectionLineColor "\"yellow\""
param *.visualizer.*.mediumVisualizer.signalPropagationAnimationSpeed 500/3e8
param *.visualizer.*.mediumVisualizer.signalTransmissionAnimationSpeed 50000/3e8
param *.visualizer.*.mediumVisualizer.displaySignals true
param *.visualizer.canvasVisualizer.mediumVisualizer.displaySignalDepartures false
param *.visualizer.canvasVisualizer.mediumVisualizer.displaySignalArrivals false
param *.visualizer.*.physicalLinkVisualizer.displayLinks true
param *.visualizer.*.mobilityVisualizer.displayPositions true
param *.visualizer.*.mobilityVisualizer.displayOrientations true
param *.visualizer.*.mobilityVisualizer.displayVelocities true
param *.visualizer.*.mobilityVisualizer.displayMovementTrails true
param *.visualizer.*.mobilityVisualizer.moduleFilter "\"**.antenna.mobility\""
param *.node[5].router "\"BlackHole\""
param *.node[3].router "\"BlackHole\""
param *.node[7].router "\"BlackHole\""
param *.node[9].router "\"BlackHole\""
param *.node[*].router "\"AodvBase\""
param *.node[*].numApps 1
param *.node[*].app[0].typename "\"UdpBasicApp\""
param *.node[*].app[0].destAddresses "\"node[*]\""
param *.node[*].app[0].destPort 5000
param *.node[*].app[0].messageLength 1000B
param *.node[*].app[0].sendInterval exponential(12ms)
param *.node[*].app[0].packetName "\"UDPData\""
param *.node[*].wlan[0].opMode "\"p\""
param *.node[*].wlan[0].radio.bandName "\"5.9 GHz\""
param *.node[*].wlan[0].radio.channelNumber 3
param *.node[*].wlan[0].radio.transmitter.power 20mW
param *.node[*].wlan[0].radio.bandwidth "10 MHz"
param *.node[*].ipv4.configurator.typename "\"HostAutoConfigurator\""
param *.node[*].ipv4.configurator.interfaces "\"wlan0\""
param *.node[*].ipv4.configurator.mcastGroups "\"224.0.0.1\""
param *.node[*].mobility.typename "\"VeinsInetMobility\""
param *.node[*].mobility.speed 20mps
param *.manager.updateInterval 0.1s
param *.manager.host "\"localhost\""
param *.manager.port 9999
param *.manager.autoShutdown true
param *.manager.launchConfig "xmldoc(\"bari.launchd.xml\")"
param *.manager.moduleType "\"vanetnetsec.veins_inet.VeinsInetRoutingCar\""
param *.physicalEnvironment.config "xmldoc(\"obstacles.xml\")"
param *.radioMedium.obstacleLoss.typename "\"IdealObstacleLoss\""

scalar RoutingScenario.radioMedium.propagation "Arrival computation count" 32013
scalar RoutingScenario.radioMedium "transmission count" 1435
scalar RoutingScenario.radioMedium "signal send count" 31892
scalar RoutingScenario.radioMedium "reception computation count" 31871
scalar RoutingScenario.radioMedium "interference computation count" 90731
scalar RoutingScenario.radioMedium "reception decision computation count" 5487
scalar RoutingScenario.radioMedium "listening decision computation count" 54052
scalar RoutingScenario.radioMedium "reception cache hit" 82.273109033367
attr unit %
scalar RoutingScenario.radioMedium "interference cache hit" 66.666666666667
attr unit %
scalar RoutingScenario.radioMedium "noise cache hit" 0
attr unit %
scalar RoutingScenario.radioMedium "snir cache hit" 50
attr unit %
scalar RoutingScenario.radioMedium "reception decision cache hit" 50
attr unit %
scalar RoutingScenario.radioMedium "reception result cache hit" 0
attr unit %
scalar RoutingScenario.manager roiArea 0
scalar RoutingScenario.node[0].lo[0].lo rcvdPkFromHl:count 72
attr interpolationmode none
attr source packetReceivedFromUpper
attr title "packets received from higher layer, count"
scalar RoutingScenario.node[0].lo[0].lo rcvdPkFromHl:sum(packetBytes) 74016
attr interpolationmode none
attr source packetReceivedFromUpper
attr title "packets received from higher layer, sum(packetBytes)"
scalar RoutingScenario.node[0].lo[0].lo passedUpPk:count 72
attr interpolationmode none
attr source packetSentToUpper
attr title "packets passed to higher layer, count"
scalar RoutingScenario.node[0].lo[0].lo passedUpPk:sum(packetBytes) 74016
attr interpolationmode none
attr source packetSentToUpper
attr title "packets passed to higher layer, sum(packetBytes)"
scalar RoutingScenario.node[0].wlan[0].mac.dcf.channelAccess.pendingQueue packetPopped:count 59
attr interpolationmode none
attr title "packet popped, count"
scalar RoutingScenario.node[0].wlan[0].mac.dcf.channelAccess.pendingQueue packetPopped:sum(packetBytes) 5010
attr interpolationmode none
attr title "packet popped, sum(packetBytes)"
statistic RoutingScenario.node[0].wlan[0].mac.dcf.channelAccess.pendingQueue queueingTime:histogram
field count 59
field mean 0.00024373733820339
field stddev 0.00013723486518656
field min 0.00011
field max 0.001174502954
field sum 0.014380502954
field sqrsum 4.5974031889547e-06
attr interpolationmode none
attr source queueingTime(packetPopped)
attr title "queueing times, histogram"
attr unit s
bin	-inf	0
bin	0	0
bin	2e-05	0
bin	4e-05	0
bin	6e-05	0
bin	8e-05	0
bin	0.0001	1
bin	0.00012	0
bin	0.00014	10
bin	0.00016	4
bin	0.00018	10
bin	0.0002	5
bin	0.00022	6
bin	0.00024	3
bin	0.00026	7
bin	0.00028	0
bin	0.0003	7
bin	0.00032	2
bin	0.00034	3
bin	0.00036	0
bin	0.00038	0
bin	0.0004	0
bin	0.00042	0
bin	0.00044	0
bin	0.00046	0
bin	0.00048	0
bin	0.0005	0
bin	0.00052	0
bin	0.00054	0
bin	0.00056	0
bin	0.00058	0
bin	0.0006	0
bin	0.00062	0
bin	0.00064	0
bin	0.00066	0
bin	0.00068	0
bin	0.0007	0
bin	0.00072	0
bin	0.00074	0
bin	0.00076	0
bin	0.00078	0
bin	0.0008	0
bin	0.00082	0
bin	0.00084	0
bin	0.00086	0
bin	0.00088	0
bin	0.0009	0
bin	0.00092	0
bin	0.00094	0
bin	0.00096	0
bin	0.00098	0
bin	0.001	0
bin	0.00102	0
bin	0.00104	0
bin	0.00106	0
bin	0.00108	0
bin	0.0011	0
bin	0.00112	0
bin	0.00114	0
bin	0.00116	1
bin	0.00118	0
bin	0.0012	0
bin	0.00122	0
bin	0.00124	0
bin	0.00126	0
bin	0.00128	0
bin	0.0013	0
bin	0.00132	0
bin	0.00134	0
bin	0.00136	0
bin	0.00138	0
bin	0.0014	0
bin	0.00142	0
bin	0.00144	0
bin	0.00146	0
scalar RoutingScenario.node[0].wlan[0].mac.dcf.channelAccess.pendingQueue queueLength:max 2
attr interpolationmode sample-hold
attr source "count(packetPushed) - count(packetPopped) - count(packetRemoved) - count(packetDropped)"
attr title "queue length, max"
scalar RoutingScenario.node[0].wlan[0].mac.dcf.channelAccess.pendingQueue queueLength:timeavg 0.017694480643434
attr interpolationmode sample-hold
attr source "count(packetPushed) - count(packetPopped) - count(packetRemoved) - count(packetDropped)"
attr title "queue length, timeavg"
scalar RoutingScenario.node[0].wlan[0].mac.dcf.channelAccess.pendingQueue packetPushed:count 59
attr interpolationmode none
attr title "packet pushed, count"
scalar RoutingScenario.node[0].wlan[0].mac.dcf.channelAccess.pendingQueue packetPushed:sum(packetBytes) 5010
attr interpolationmode none
attr title "packet pushed, sum(packetBytes)"
scalar RoutingScenario.node[0].wlan[0].mac.dcf.channelAccess.pendingQueue packetDropQueueOverflow:count 0
attr interpolationmode none
attr source packetDropReasonIsQueueOverflow(packetDropped)
attr title "packet drops: queue overflow, count"
scalar RoutingScenario.node[0].wlan[0].mac.dcf.channelAccess.pendingQueue packetDropQueueOverflow:sum(packetBytes) 0
attr interpolationmode none
attr source packetDropReasonIsQueueOverflow(packetDropped)
attr title "packet drops: queue overflow, sum(packetBytes)"
scalar RoutingScenario.node[0].wlan[0].mac.dcf.channelAccess.pendingQueue packetRemoved:count 0
attr interpolationmode none
attr title "packets removed, count"
scalar RoutingScenario.node[0].wlan[0].mac.dcf.channelAccess.pendingQueue packetRemoved:sum(packetBytes) 0
attr interpolationmode none
attr title "packets removed, sum(packetBytes)"
statistic RoutingScenario.node[0].wlan[0].mac.dcf.channelAccess.inProgressFrames queueingTime:histogram
field count 59
field mean 0.00019571452915254
field stddev 5.671189735195e-05
field min 8.8e-05
field max 0.000599005908
field sum 0.01154715722
field sqrsum 2.4464883178357e-06
attr interpolationmode none
attr source queueingTime(packetDequeued)
attr title "queueing times, histogram"
bin	-inf	0
bin	0	0
bin	1e-05	0
bin	2e-05	0
bin	3e-05	0
bin	4e-05	0
bin	5e-05	0
bin	6e-05	0
bin	7e-05	0
bin	8e-05	2
bin	9e-05	0
bin	0.0001	0
bin	0.00011	0
bin	0.00012	0
bin	0.00013	0
bin	0.00014	0
bin	0.00015	0
bin	0.00016	0
bin	0.00017	0
bin	0.00018	1
bin	0.00019	55
bin	0.0002	0
bin	0.00021	0
bin	0.00022	0
bin	0.00023	0
bin	0.00024	0
bin	0.00025	0
bin	0.00026	0
bin	0.00027	0
bin	0.00028	0
bin	0.00029	0
bin	0.0003	0
bin	0.00031	0
bin	0.00032	0
bin	0.00033	0
bin	0.00034	0
bin	0.00035	0
bin	0.00036	0
bin	0.00037	0
bin	0.00038	0
bin	0.00039	0
bin	0.0004	0
bin	0.00041	0
bin	0.00042	0
bin	0.00043	0
bin	0.00044	0
bin	0.00045	0
bin	0.00046	0
bin	0.00047	0
bin	0.00048	0
bin	0.00049	0
bin	0.0005	0
bin	0.00051	0
bin	0.00052	0
bin	0.00053	0
bin	0.00054	0
bin	0.00055	0
bin	0.00056	0
bin	0.00057	0
bin	0.00058	0
bin	0.00059	1
bin	0.0006	0
bin	0.00061	0
bin	0.00062	0
bin	0.00063	0
bin	0.00064	0
bin	0.00065	0
bin	0.00066	0
bin	0.00067	0
bin	0.00068	0
bin	0.00069	0
bin	0.0007	0
bin	0.00071	0
bin	0.00072	0
bin	0.00073	0
scalar RoutingScenario.node[0].wlan[0].mac.dcf.channelAccess.inProgressFrames queueLength:max 2
attr interpolationmode sample-hold
attr source "count(packetEnqueued) - count(packetDequeued)"
attr title "queue length, max"
scalar RoutingScenario.node[0].wlan[0].mac.dcf.channelAccess.inProgressFrames queueLength:timeavg 0.014210115531926
attr interpolationmode sample-hold
attr source "count(packetEnqueued) - count(packetDequeued)"
attr title "queue length, timeavg"
scalar RoutingScenario.node[0].wlan[0].mac.dcf.channelAccess.contention channelAccessGranted:count 59
attr title "channel access granted, count"
scalar RoutingScenario.node[0].wlan[0].mac.dcf.channelAccess.contention stateChanged:count 952
attr interpolationmode none
attr title "contention state changed, count"
scalar RoutingScenario.node[0].wlan[0].mac.dcf.channelAccess channelOwnershipChanged:count 118
attr interpolationmode sample-hold
attr title "channel ownership, count"
scalar RoutingScenario.node[0].wlan[0].mac.dcf.originatorMacDataService packetAggregated:count 0
attr title "packets aggregated, count"
scalar RoutingScenario.node[0].wlan[0].mac.dcf.originatorMacDataService packetFragmented:count 0
attr title "packets fragmented, count"
scalar RoutingScenario.node[0].wlan[0].mac.dcf.recipientMacDataService packetDeaggregated:count 0
attr title "packets deaggregated, count"
scalar RoutingScenario.node[0].wlan[0].mac.dcf.recipientMacDataService packetDefragmented:count 61
attr title "packets defragmented, count"
scalar RoutingScenario.node[0].wlan[0].mac.dcf.recipientMacDataService packetDropDuplicateDetected:count 0
attr interpolationmode none
attr source packetDropReasonIsDuplicateDetected(packetDropped)
attr title "packet drops: duplicate detected, count"
scalar RoutingScenario.node[0].wlan[0].mac.dcf.recipientMacDataService packetDropDuplicateDetected:sum(packetBytes) 0
attr interpolationmode none
attr source packetDropReasonIsDuplicateDetected(packetDropped)
attr title "packet drops: duplicate detected, sum(packetBytes)"
scalar RoutingScenario.node[0].wlan[0].mac.dcf.recoveryProcedure retryLimitReached:count 0
attr title "retry limit reached, count"
scalar RoutingScenario.node[0].wlan[0].mac.dcf frameSequenceFinished:count 59
attr title "finished frame sequences, count"
statistic RoutingScenario.node[0].wlan[0].mac.dcf frameSequenceDuration:histogram
field count 59
field mean 0.00018882464857627
field stddev 1.9076750892792e-05
field min 8.8e-05
field max 0.00019250364
field sum 0.011140654266
field sqrsum 2.1247376273155e-06
attr source frameSequenceDuration(frameSequenceFinished)
attr title "frame sequence durations, histogram"
bin	-inf	0
bin	6e-05	0
bin	6.2e-05	0
bin	6.4e-05	0
bin	6.6e-05	0
bin	6.8e-05	0
bin	7e-05	0
bin	7.2e-05	0
bin	7.4e-05	0
bin	7.6e-05	0
bin	7.8e-05	0
bin	8e-05	0
bin	8.2e-05	0
bin	8.4e-05	0
bin	8.6e-05	2
bin	8.8e-05	0
bin	9e-05	0
bin	9.2e-05	0
bin	9.4e-05	0
bin	9.6e-05	0
bin	9.8e-05	0
bin	0.0001	0
bin	0.000102	0
bin	0.000104	0
bin	0.000106	0
bin	0.000108	0
bin	0.00011	0
bin	0.000112	0
bin	0.000114	0
bin	0.000116	0
bin	0.000118	0
bin	0.00012	0
bin	0.000122	0
bin	0.000124	0
bin	0.000126	0
bin	0.000128	0
bin	0.00013	0
bin	0.000132	0
bin	0.000134	0
bin	0.000136	0
bin	0.000138	0
bin	0.00014	0
bin	0.000142	0
bin	0.000144	0
bin	0.000146	0
bin	0.000148	0
bin	0.00015	0
bin	0.000152	0
bin	0.000154	0
bin	0.000156	0
bin	0.000158	0
bin	0.00016	0
bin	0.000162	0
bin	0.000164	0
bin	0.000166	0
bin	0.000168	0
bin	0.00017	0
bin	0.000172	0
bin	0.000174	0
bin	0.000176	0
bin	0.000178	0
bin	0.00018	0
bin	0.000182	0
bin	0.000184	1
bin	0.000186	0
bin	0.000188	0
bin	0.00019	0
bin	0.000192	56
bin	0.000194	0
bin	0.000196	0
bin	0.000198	0
bin	0.0002	0
bin	0.000202	0
bin	0.000204	0
bin	0.000206	0
bin	0.000208	0
bin	0.00021	0
bin	0.000212	0
bin	0.000214	0
bin	0.000216	0
bin	0.000218	0
bin	0.00022	0
statistic RoutingScenario.node[0].wlan[0].mac.dcf frameSequenceNumPackets:histogram
field count 59
field mean 1.9661016949153
field stddev 0.18252082497294
field min 1
field max 2
field sum 116
field sqrsum 230
attr source frameSequenceNumPackets(frameSequenceFinished)
attr title "frame sequences: number of packets, histogram"
bin	-inf	0
bin	0	0
bin	1	2
bin	2	57
bin	3	0
scalar RoutingScenario.node[0].wlan[0].mac.dcf packetReceivedFromPeer:count 118
attr interpolationmode none
attr title "packets received, count"
scalar RoutingScenario.node[0].wlan[0].mac.dcf packetReceivedFromPeer:sum(packetBytes) 60432
attr interpolationmode none
attr title "packets received, sum(packetBytes)"
scalar RoutingScenario.node[0].wlan[0].mac.dcf packetReceivedFromPeerUnicast:count 114
attr interpolationmode none
attr source ieee80211Unicast(packetReceivedFromPeer)
attr title "packets received: unicast, count"
scalar RoutingScenario.node[0].wlan[0].mac.dcf packetReceivedFromPeerUnicast:sum(packetBytes) 60104
attr interpolationmode none
attr source ieee80211Unicast(packetReceivedFromPeer)
attr title "packets received: unicast, sum(packetBytes)"
scalar RoutingScenario.node[0].wlan[0].mac.dcf packetReceivedFromPeerMulticast:count 4
attr interpolationmode none
attr source ieee80211Multicast(packetReceivedFromPeer)
attr title "packets received: multicast, count"
scalar RoutingScenario.node[0].wlan[0].mac.dcf packetReceivedFromPeerMulticast:sum(packetBytes) 328
attr interpolationmode none
attr source ieee80211Multicast(packetReceivedFromPeer)
attr title "packets received: multicast, sum(packetBytes)"
scalar RoutingScenario.node[0].wlan[0].mac.dcf packetReceivedFromPeerBroadcast:count 4
attr interpolationmode none
attr source ieee80211Broadcast(packetReceivedFromPeer)
attr title "packets received: broadcast, count"
scalar RoutingScenario.node[0].wlan[0].mac.dcf packetReceivedFromPeerBroadcast:sum(packetBytes) 328
attr interpolationmode none
attr source ieee80211Broadcast(packetReceivedFromPeer)
attr title "packets received: broadcast, sum(packetBytes)"
scalar RoutingScenario.node[0].wlan[0].mac.dcf packetReceivedFromPeerWithRetry:count 1
attr interpolationmode none
attr source ieee80211Retry(packetReceivedFromPeer)
attr title "packets received: with retry, count"
scalar RoutingScenario.node[0].wlan[0].mac.dcf packetReceivedFromPeerWithRetry:sum(packetBytes) 1058
attr interpolationmode none
attr source ieee80211Retry(packetReceivedFromPeer)
attr title "packets received: with retry, sum(packetBytes)"
scalar RoutingScenario.node[0].wlan[0].mac.dcf packetReceivedFromPeerWithoutRetry:count 117
attr interpolationmode none
attr source ieee80211NotRetry(packetReceivedFromPeer)
attr title "packets received: without retry, count"
scalar RoutingScenario.node[0].wlan[0].mac.dcf packetReceivedFromPeerWithoutRetry:sum(packetBytes) 59374
attr interpolationmode none
attr source ieee80211NotRetry(packetReceivedFromPeer)
attr title "packets received: without retry, sum(packetBytes)"
scalar RoutingScenario.node[0].wlan[0].mac.dcf packetSentToPeer:count 116
attr interpolationmode none
attr title "packets sent, count"
scalar RoutingScenario.node[0].wlan[0].mac.dcf packetSentToPeer:sum(packetBytes) 5808
attr interpolationmode none
attr title "packets sent, sum(packetBytes)"
scalar RoutingScenario.node[0].wlan[0].mac.dcf packetSentToPeerUnicast:count 114
attr interpolationmode none
attr source ieee80211Unicast(packetSentToPeer)
attr title "packets sent: unicast, count"
scalar RoutingScenario.node[0].wlan[0].mac.dcf packetSentToPeerUnicast:sum(packetBytes) 5692
attr interpolationmode none
attr source ieee80211Unicast(packetSentToPeer)
attr title "packets sent: unicast, sum(packetBytes)"
scalar RoutingScenario.node[0].wlan[0].mac.dcf packetSentToPeerMulticast:count 2
attr interpolationmode none
attr source ieee80211Multicast(packetSentToPeer)
attr title "packets sent: multicast, count"
scalar RoutingScenario.node[0].wlan[0].mac.dcf packetSentToPeerMulticast:sum(packetBytes) 116
attr interpolationmode none
attr source ieee80211Multicast(packetSentToPeer)
attr title "packets sent: multicast, sum(packetBytes)"
scalar RoutingScenario.node[0].wlan[0].mac.dcf packetSentToPeerBroadcast:count 2
attr interpolationmode none
attr source ieee80211Broadcast(packetSentToPeer)
attr title "packets sent: broadcast , count"
scalar RoutingScenario.node[0].wlan[0].mac.dcf packetSentToPeerBroadcast:sum(packetBytes) 116
attr interpolationmode none
attr source ieee80211Broadcast(packetSentToPeer)
attr title "packets sent: broadcast , sum(packetBytes)"
scalar RoutingScenario.node[0].wlan[0].mac.dcf packetSentToPeerWithRetry:count 0
attr interpolationmode none
attr source ieee80211Retry(packetSentToPeer)
attr title "packets sent: with retry, count"
scalar RoutingScenario.node[0].wlan[0].mac.dcf packetSentToPeerWithRetry:sum(packetBytes) 0
attr interpolationmode none
attr source ieee80211Retry(packetSentToPeer)
attr title "packets sent: with retry, sum(packetBytes)"
scalar RoutingScenario.node[0].wlan[0].mac.dcf packetSentToPeerWithoutRetry:count 116
attr interpolationmode none
attr source ieee80211NotRetry(packetSentToPeer)
attr title "packets sent: without retry, count"
scalar RoutingScenario.node[0].wlan[0].mac.dcf packetSentToPeerWithoutRetry:sum(packetBytes) 5808
attr interpolationmode none
attr source ieee80211NotRetry(packetSentToPeer)
attr title "packets sent: without retry, sum(packetBytes)"
scalar RoutingScenario.node[0].wlan[0].mac.dcf packetDrop:count 0
attr interpolationmode none
attr source packetDropped
attr title "packet drops, count"
scalar RoutingScenario.node[0].wlan[0].mac.dcf packetDrop:sum(packetBytes) 0
attr interpolationmode none
attr source packetDropped
attr title "packet drops, sum(packetBytes)"
scalar RoutingScenario.node[0].wlan[0].mac.dcf packetDropNotAddressedToUs:count 0
attr interpolationmode none
attr source packetDropReasonIsNotAddressedToUs(packetDropped)
attr title "packet drops: not addressed to us, count"
scalar RoutingScenario.node[0].wlan[0].mac.dcf packetDropNotAddressedToUs:sum(packetBytes) 0
attr interpolationmode none
attr source packetDropReasonIsNotAddressedToUs(packetDropped)
attr title "packet drops: not addressed to us, sum(packetBytes)"
scalar RoutingScenario.node[0].wlan[0].mac.dcf packetDropQueueOverflow:count 0
attr interpolationmode none
attr source packetDropReasonIsQueueOverflow(packetDropped)
attr title "packet drops: queue overflow, count"
scalar RoutingScenario.node[0].wlan[0].mac.dcf packetDropQueueOverflow:sum(packetBytes) 0
attr interpolationmode none
attr source packetDropReasonIsQueueOverflow(packetDropped)
attr title "packet drops: queue overflow, sum(packetBytes)"
scalar RoutingScenario.node[0].wlan[0].mac.dcf packetDropRetryLimitReached:count 0
attr interpolationmode none
attr source packetDropReasonIsRetryLimitReached(packetDropped)
attr title "packet drops: retry limit reached, count"
scalar RoutingScenario.node[0].wlan[0].mac.dcf packetDropRetryLimitReached:sum(packetBytes) 0
attr interpolationmode none
attr source packetDropReasonIsRetryLimitReached(packetDropped)
attr title "packet drops: retry limit reached, sum(packetBytes)"
scalar RoutingScenario.node[0].wlan[0].mac.dcf linkBroken:count 0
attr interpolationmode none
attr title "link breaks, count"
scalar RoutingScenario.node[0].wlan[0].mac packetReceivedFromLower:count 119
attr interpolationmode none
attr title "packets received from lower layer, count"
scalar RoutingScenario.node[0].wlan[0].mac packetReceivedFromLower:sum(packetBytes) 61490
attr interpolationmode none
attr title "packets received from lower layer, sum(packetBytes)"
scalar RoutingScenario.node[0].wlan[0].mac packetSentToLower:count 116
attr interpolationmode none
attr title "packets sent to lower layer, count"
scalar RoutingScenario.node[0].wlan[0].mac packetSentToLower:sum(packetBytes) 5808
attr interpolationmode none
attr title "packets sent to lower layer, sum(packetBytes)"
scalar RoutingScenario.node[0].wlan[0].mac packetReceivedFromUpper:count 59
attr interpolationmode none
attr title "packets received from upper layer, count"
scalar RoutingScenario.node[0].wlan[0].mac packetReceivedFromUpper:sum(packetBytes) 3358
attr interpolationmode none
attr title "packets received from upper layer, sum(packetBytes)"
scalar RoutingScenario.node[0].wlan[0].mac packetSentToUpper:count 61
attr interpolationmode none
attr title "packets sent to upper layer, count"
scalar RoutingScenario.node[0].wlan[0].mac packetSentToUpper:sum(packetBytes) 57926
attr interpolationmode none
attr title "packets sent to upper layer, sum(packetBytes)"
scalar RoutingScenario.node[0].wlan[0].mac packetDrop:count 1
attr interpolationmode none
attr source packetDropped
attr title "packet drops, count"
scalar RoutingScenario.node[0].wlan[0].mac packetDrop:sum(packetBytes) 1058
attr interpolationmode none
attr source packetDropped
attr title "packet drops, sum(packetBytes)"
scalar RoutingScenario.node[0].wlan[0].mac packetDropIncorrectlyReceived:count 1
attr interpolationmode none
attr source packetDropReasonIsIncorrectlyReceived(packetDropped)
attr title "packet drops: incorrectly received, count"
scalar RoutingScenario.node[0].wlan[0].mac packetDropIncorrectlyReceived:sum(packetBytes) 1058
attr interpolationmode none
attr source packetDropReasonIsIncorrectlyReceived(packetDropped)
attr title "packet drops: incorrectly received, sum(packetBytes)"
scalar RoutingScenario.node[0].wlan[0].mac packetDropNotAddressedToUs:count 0
attr interpolationmode none
attr source packetDropReasonIsNotAddressedToUs(packetDropped)
attr title "packet drops: not addressed to us, count"
scalar RoutingScenario.node[0].wlan[0].mac packetDropNotAddressedToUs:sum(packetBytes) 0
attr interpolationmode none
attr source packetDropReasonIsNotAddressedToUs(packetDropped)
attr title "packet drops: not addressed to us, sum(packetBytes)"
scalar RoutingScenario.node[0].wlan[0].mac packetDropQueueOverflow:count 0
attr interpolationmode none
attr source packetDropReasonIsQueueOverflow(packetDropped)
attr title "packet drops: queue overflow, count"
scalar RoutingScenario.node[0].wlan[0].mac packetDropQueueOverflow:sum(packetBytes) 0
attr interpolationmode none
attr source packetDropReasonIsQueueOverflow(packetDropped)
attr title "packet drops: queue overflow, sum(packetBytes)"
scalar RoutingScenario.node[0].wlan[0].mac packetDropRetryLimitReached:count 0
attr interpolationmode none
attr source packetDropReasonIsRetryLimitReached(packetDropped)
attr title "packet drops: retry limit reached, count"
scalar RoutingScenario.node[0].wlan[0].mac packetDropRetryLimitReached:sum(packetBytes) 0
attr interpolationmode none
attr source packetDropReasonIsRetryLimitReached(packetDropped)
attr title "packet drops: retry limit reached, sum(packetBytes)"
scalar RoutingScenario.node[0].wlan[0].mac packetDropDuplicateDetected:count 0
attr interpolationmode none
attr source packetDropReasonIsDuplicateDetected(packetDropped)
attr title "packet drops: duplicate detected, count"
scalar RoutingScenario.node[0].wlan[0].mac packetDropDuplicateDetected:sum(packetBytes) 0
attr interpolationmode none
attr source packetDropReasonIsDuplicateDetected(packetDropped)
attr title "packet drops: duplicate detected, sum(packetBytes)"
scalar RoutingScenario.node[0].wlan[0].mac packetDropOther:count 0
attr interpolationmode none
attr source packetDropReasonIsOther(packetDropped)
attr title "packet drops: other, count"
scalar RoutingScenario.node[0].wlan[0].mac packetDropOther:sum(packetBytes) 0
attr interpolationmode none
attr source packetDropReasonIsOther(packetDropped)
attr title "packet drops: other, sum(packetBytes)"
scalar RoutingScenario.node[0].wlan[0].mac linkBroken:count 0
attr interpolationmode none
attr title "link breaks, count"
statistic RoutingScenario.node[0].wlan[0].radio radioChannel:histogram
field count 1
field mean 3
field stddev -nan
field min 3
field max 3
field sum 3
field sqrsum 9
attr interpolationmode sample-hold
attr source radioChannelChanged
attr title "Radio channel, histogram"
bin	-inf	0
bin	2	0
bin	3	1
bin	4	0
scalar RoutingScenario.node[0].wlan[0].radio radioMode:count 235
attr interpolationmode sample-hold
attr source radioModeChanged
attr title "Radio mode, count"
scalar RoutingScenario.node[0].wlan[0].radio receptionState:count 471
attr interpolationmode sample-hold
attr source receptionStateChanged
attr title "Radio reception state, count"
scalar RoutingScenario.node[0].wlan[0].radio transmissionState:count 464
attr interpolationmode sample-hold
attr source transmissionStateChanged
attr title "Radio transmission state, count"
statistic RoutingScenario.node[0].wlan[0].radio minSnir:histogram
field count 119
field mean 1436.1236540848
field stddev 2253.5418693884
field min 16.709868138897
field max 5818.5241288891
field sum 170898.71483609
field sqrsum 844688899.76503
attr source minimumSnir(packetSentToUpper)
attr title "Min SNIR, histogram"
bin	-inf	0
bin	0	11
bin	100	18
bin	200	8
bin	300	38
bin	400	19
bin	500	0
bin	600	0
bin	700	0
bin	800	0
bin	900	0
bin	1000	0
bin	1100	0
bin	1200	0
bin	1300	0
bin	1400	0
bin	1500	0
bin	1600	0
bin	1700	0
bin	1800	0
bin	1900	0
bin	2000	0
bin	2100	0
bin	2200	0
bin	2300	0
bin	2400	0
bin	2500	0
bin	2600	0
bin	2700	0
bin	2800	0
bin	2900	0
bin	3000	0
bin	3100	0
bin	3200	0
bin	3300	0
bin	3400	0
bin	3500	0
bin	3600	0
bin	3700	0
bin	3800	0
bin	3900	0
bin	4000	0
bin	4100	0
bin	4200	0
bin	4300	0
bin	4400	0
bin	4500	0
bin	4600	0
bin	4700	0
bin	4800	0
bin	4900	0
bin	5000	0
bin	5100	0
bin	5200	0
bin	5300	0
bin	5400	0
bin	5500	0
bin	5600	0
bin	5700	18
bin	5800	7
bin	5900	0
bin	6000	0
bin	6100	0
bin	6200	0
bin	6300	0
bin	6400	0
bin	6500	0
bin	6600	0
bin	6700	0
bin	6800	0
bin	6900	0
bin	7000	0
bin	7100	0
bin	7200	0
bin	7300	0
statistic RoutingScenario.node[0].wlan[0].radio packetErrorRate:histogram
field count 119
field mean 0.0084459774877536
field stddev 0.090013963106245
field min 0
field max 0.98188054990469
field sum 1.0050713210427
field sqrsum 0.96458540913403
attr source packetErrorRate(packetSentToUpper)
attr title "Packet error rate, histogram"
bin	-inf	0
bin	0	117
bin	0.02	1
bin	0.04	0
bin	0.06	0
bin	0.08	0
bin	0.1	0
bin	0.12	0
bin	0.14	0
bin	0.16	0
bin	0.18	0
bin	0.2	0
bin	0.22	0
bin	0.24	0
bin	0.26	0
bin	0.28	0
bin	0.3	0
bin	0.32	0
bin	0.34	0
bin	0.36	0
bin	0.38	0
bin	0.4	0
bin	0.42	0
bin	0.44	0
bin	0.46	0
bin	0.48	0
bin	0.5	0
bin	0.52	0
bin	0.54	0
bin	0.56	0
bin	0.58	0
bin	0.6	0
bin	0.62	0
bin	0.64	0
bin	0.66	0
bin	0.68	0
bin	0.7	0
bin	0.72	0
bin	0.74	0
bin	0.76	0
bin	0.78	0
bin	0.8	0
bin	0.82	0
bin	0.84	0
bin	0.86	0
bin	0.88	0
bin	0.9	0
bin	0.92	0
bin	0.94	0
bin	0.96	0
bin	0.98	1
bin	1	0
bin	1.02	0
bin	1.04	0
bin	1.06	0
bin	1.08	0
bin	1.1	0
bin	1.12	0
bin	1.14	0
bin	1.16	0
bin	1.18	0
bin	1.2	0
bin	1.22	0
bin	1.24	0
statistic RoutingScenario.node[0].wlan[0].radio bitErrorRate:histogram
field count 0
field mean -nan
field stddev nan
field min nan
field max nan
field sum 0
field sqrsum 0
attr source bitErrorRate(packetSentToUpper)
attr title "Bit error rate, histogram"
bin	-inf	0
bin	0	0
bin	1	0
statistic RoutingScenario.node[0].wlan[0].radio symbolErrorRate:histogram
field count 0
field mean -nan
field stddev nan
field min nan
field max nan
field sum 0
field sqrsum 0
attr source symbolErrorRate(packetSentToUpper)
attr title "Symbol error rate, histogram"
bin	-inf	0
bin	0	0
bin	1	0
scalar RoutingScenario.node[0].ipv4.ip packetDropAddressResolutionFailed:count 0
attr interpolationmode none
attr source packetDropReasonIsAddressResolutionFailed(packetDropped)
attr title "packet drop: address resolution failed, count"
scalar RoutingScenario.node[0].ipv4.ip packetDropAddressResolutionFailed:sum(packetBytes) 0
attr interpolationmode none
attr source packetDropReasonIsAddressResolutionFailed(packetDropped)
attr title "packet drop: address resolution failed, sum(packetBytes)"
scalar RoutingScenario.node[0].ipv4.ip packetDropHopLimitReached:count 0
attr interpolationmode none
attr source packetDropReasonIsHopLimitReached(packetDropped)
attr title "packet drop: hop limit reached, count"
scalar RoutingScenario.node[0].ipv4.ip packetDropHopLimitReached:sum(packetBytes) 0
attr interpolationmode none
attr source packetDropReasonIsHopLimitReached(packetDropped)
attr title "packet drop: hop limit reached, sum(packetBytes)"
scalar RoutingScenario.node[0].ipv4.ip packetDropForwardingDisabled:count 0
attr interpolationmode none
attr source packetDropReasonIsForwardingDisabled(packetDropped)
attr title "packet drop: forwarding disabled, count"
scalar RoutingScenario.node[0].ipv4.ip packetDropForwardingDisabled:sum(packetBytes) 0
attr interpolationmode none
attr source packetDropReasonIsForwardingDisabled(packetDropped)
attr title "packet drop: forwarding disabled, sum(packetBytes)"
scalar RoutingScenario.node[0].ipv4.ip packetDropNoInterfaceFound:count 0
attr interpolationmode none
attr source packetDropReasonIsNoInterfaceFound(packetDropped)
attr title "packet drop: no interface found, count"
scalar RoutingScenario.node[0].ipv4.ip packetDropNoInterfaceFound:sum(packetBytes) 0
attr interpolationmode none
attr source packetDropReasonIsNoInterfaceFound(packetDropped)
attr title "packet drop: no interface found, sum(packetBytes)"
scalar RoutingScenario.node[0].ipv4.ip packetDropNoRouteFound:count 0
attr interpolationmode none
attr source packetDropReasonIsNoRouteFound(packetDropped)
attr title "packet drop: no route found, count"
scalar RoutingScenario.node[0].ipv4.ip packetDropNoRouteFound:sum(packetBytes) 0
attr interpolationmode none
attr source packetDropReasonIsNoRouteFound(packetDropped)
attr title "packet drop: no route found, sum(packetBytes)"
scalar RoutingScenario.node[0].ipv4.ip packetDropUndefined:count 0
attr interpolationmode none
attr source packetDropReasonIsUndefined(packetDropped)
attr title "packet drop: undefined, count"
scalar RoutingScenario.node[0].ipv4.ip packetDropUndefined:sum(packetBytes) 0
attr interpolationmode none
attr source packetDropReasonIsUndefined(packetDropped)
attr title "packet drop: undefined, sum(packetBytes)"
scalar RoutingScenario.node[0].ipv4.arp arpResolutionFailed:count 0
attr title "ARP failed resolutions, count"
scalar RoutingScenario.node[0].ipv4.arp arpResolutionCompleted:count 1
attr title "ARP completed resolutions, count"
scalar RoutingScenario.node[0].ipv4.arp arpResolutionInitiated:count 2
attr title "ARP initiated resolutions, count"
scalar RoutingScenario.node[0].ipv4.arp arpReplySent:count 0
attr source arpReplySent
attr title "ARP replies sent, count"
scalar RoutingScenario.node[0].ipv4.arp arpReplySent:sum(packetBytes) 0
attr source arpReplySent
attr title "ARP replies sent, sum(packetBytes)"
scalar RoutingScenario.node[0].ipv4.arp arpRequestSent:count 2
attr source arpRequestSent
attr title "ARP request sent, count"
scalar RoutingScenario.node[0].ipv4.arp arpRequestSent:sum(packetBytes) 56
attr source arpRequestSent
attr title "ARP request sent, sum(packetBytes)"
scalar RoutingScenario.node[0].udp packetReceived:count 132
attr interpolationmode none
attr source packetReceived
attr title "packets received, count"
scalar RoutingScenario.node[0].udp packetReceived:sum(packetBytes) 129152
attr interpolationmode none
attr source packetReceived
attr title "packets received, sum(packetBytes)"
scalar RoutingScenario.node[0].udp packetSent:count 74
attr interpolationmode none
attr source packetSent
attr title "packets sent, count"
scalar RoutingScenario.node[0].udp packetSent:sum(packetBytes) 72632
attr interpolationmode none
attr source packetSent
attr title "packets sent, sum(packetBytes)"
scalar RoutingScenario.node[0].udp passedUpPk:count 4
attr interpolationmode none
attr source packetSentToUpper
attr title "packets passed up, count"
scalar RoutingScenario.node[0].udp droppedPkWrongPort:count 128
attr interpolationmode none
attr source packetDropReasonIsNoPortFound(packetDropped)
attr title "packets dropped (wrong port), count"
scalar RoutingScenario.node[0].udp droppedPkBadChecksum:count 0
attr interpolationmode none
attr source packetDropReasonIsIncorrectlyReceived(packetDropped)
attr title "packets dropped (checksum error), count"
scalar RoutingScenario.node[0].app[0] "packets sent" 72
scalar RoutingScenario.node[0].app[0] "packets received" 0
scalar RoutingScenario.node[0].app[0] packetReceived:count 0
attr interpolationmode none
attr source packetReceived
attr title "packets received, count"
scalar RoutingScenario.node[0].app[0] packetReceived:sum(packetBytes) 0
attr interpolationmode none
attr source packetReceived
attr title "packets received, sum(packetBytes)"
statistic RoutingScenario.node[0].app[0] rcvdPkLifetime:stats
field count 0
field mean -nan
field stddev nan
field min nan
field max nan
field sum 0
field sqrsum 0
attr interpolationmode none
attr source dataAge(packetReceived)
attr title "received packet lifetime, stats"
attr unit s
scalar RoutingScenario.node[0].app[0] packetSent:count 72
attr interpolationmode none
attr source packetSent
attr title "packets sent, count"
scalar RoutingScenario.node[0].app[0] packetSent:sum(packetBytes) 72000
attr interpolationmode none
attr source packetSent
attr title "packets sent, sum(packetBytes)"
scalar RoutingScenario.node[1].lo[0].lo rcvdPkFromHl:count 0
attr interpolationmode none
attr source packetReceivedFromUpper
attr title "packets received from higher layer, count"
scalar RoutingScenario.node[1].lo[0].lo rcvdPkFromHl:sum(packetBytes) 0
attr interpolationmode none
attr source packetReceivedFromUpper
attr title "packets received from higher layer, sum(packetBytes)"
scalar RoutingScenario.node[1].lo[0].lo passedUpPk:count 0
attr interpolationmode none
attr source packetSentToUpper
attr title "packets passed to higher layer, count"
scalar RoutingScenario.node[1].lo[0].lo passedUpPk:sum(packetBytes) 0
attr interpolationmode none
attr source packetSentToUpper
attr title "packets passed to higher layer, sum(packetBytes)"
scalar RoutingScenario.node[1].wlan[0].mac.dcf.channelAccess.pendingQueue packetPopped:count 124
attr interpolationmode none
attr title "packet popped, count"
scalar RoutingScenario.node[1].wlan[0].mac.dcf.channelAccess.pendingQueue packetPopped:sum(packetBytes) 126236
attr interpolationmode none
attr title "packet popped, sum(packetBytes)"
statistic RoutingScenario.node[1].wlan[0].mac.dcf.channelAccess.pendingQueue queueingTime:histogram
field count 124
field mean 0.0044404120663065
field stddev 0.0068541983774376
field min 0
field max 0.029632192303
field sum 0.550611096222
field sqrsum 0.0082234845093704
attr interpolationmode none
attr source queueingTime(packetPopped)
attr title "queueing times, histogram"
attr unit s
bin	-inf	0
bin	0	52
bin	0.0005	10
bin	0.001	9
bin	0.0015	6
bin	0.002	6
bin	0.0025	3
bin	0.003	2
bin	0.0035	1
bin	0.004	0
bin	0.0045	2
bin	0.005	2
bin	0.0055	0
bin	0.006	2
bin	0.0065	0
bin	0.007	2
bin	0.0075	1
bin	0.008	3
bin	0.0085	1
bin	0.009	0
bin	0.0095	0
bin	0.01	0
bin	0.0105	0
bin	0.011	0
bin	0.0115	0
bin	0.012	0
bin	0.0125	0
bin	0.013	3
bin	0.0135	1
bin	0.014	0
bin	0.0145	2
bin	0.015	0
bin	0.0155	2
bin	0.016	1
bin	0.0165	2
bin	0.017	0
bin	0.0175	3
bin	0.018	0
bin	0.0185	0
bin	0.019	0
bin	0.0195	3
bin	0.02	1
bin	0.0205	1
bin	0.021	1
bin	0.0215	0
bin	0.022	0
bin	0.0225	0
bin	0.023	0
bin	0.0235	0
bin	0.024	0
bin	0.0245	0
bin	0.025	0
bin	0.0255	0
bin	0.026	1
bin	0.0265	0
bin	0.027	0
bin	0.0275	0
bin	0.028	0
bin	0.0285	0
bin	0.029	0
bin	0.0295	1
bin	0.03	0
bin	0.0305	0
bin	0.031	0
bin	0.0315	0
bin	0.032	0
bin	0.0325	0
bin	0.033	0
bin	0.0335	0
bin	0.034	0
bin	0.0345	0
bin	0.035	0
bin	0.0355	0
bin	0.036	0
bin	0.0365	0
bin	0.037	0
bin	0.0375	0
scalar RoutingScenario.node[1].wlan[0].mac.dcf.channelAccess.pendingQueue queueLength:max 9
attr interpolationmode sample-hold
attr source "count(packetPushed) - count(packetPopped) - count(packetRemoved) - count(packetDropped)"
attr title "queue length, max"
scalar RoutingScenario.node[1].wlan[0].mac.dcf.channelAccess.pendingQueue queueLength:timeavg 0.67723756715238
attr interpolationmode sample-hold
attr source "count(packetPushed) - count(packetPopped) - count(packetRemoved) - count(packetDropped)"
attr title "queue length, timeavg"
scalar RoutingScenario.node[1].wlan[0].mac.dcf.channelAccess.pendingQueue packetPushed:count 124
attr interpolationmode none
attr title "packet pushed, count"
scalar RoutingScenario.node[1].wlan[0].mac.dcf.channelAccess.pendingQueue packetPushed:sum(packetBytes) 126236
attr interpolationmode none
attr title "packet pushed, sum(packetBytes)"
scalar RoutingScenario.node[1].wlan[0].mac.dcf.channelAccess.pendingQueue packetDropQueueOverflow:count 0
attr interpolationmode none
attr source packetDropReasonIsQueueOverflow(packetDropped)
attr title "packet drops: queue overflow, count"
scalar RoutingScenario.node[1].wlan[0].mac.dcf.channelAccess.pendingQueue packetDropQueueOverflow:sum(packetBytes) 0
attr interpolationmode none
attr source packetDropReasonIsQueueOverflow(packetDropped)
attr title "packet drops: queue overflow, sum(packetBytes)"
scalar RoutingScenario.node[1].wlan[0].mac.dcf.channelAccess.pendingQueue packetRemoved:count 0
attr interpolationmode none
attr title "packets removed, count"
scalar RoutingScenario.node[1].wlan[0].mac.dcf.channelAccess.pendingQueue packetRemoved:sum(packetBytes) 0
attr interpolationmode none
attr title "packets removed, sum(packetBytes)"
statistic RoutingScenario.node[1].wlan[0].mac.dcf.channelAccess.inProgressFrames queueingTime:histogram
field count 124
field mean 0.0040536339468145
field stddev 0.0065875446845191
field min 8.8e-05
field max 0.042581787406
field sum 0.502650609405
field sqrsum 0.0073752382050469
attr interpolationmode none
attr source queueingTime(packetDequeued)
attr title "queueing times, histogram"
bin	-inf	0
bin	0	49
bin	0.001	24
bin	0.002	12
bin	0.003	7
bin	0.004	11
bin	0.005	4
bin	0.006	1
bin	0.007	2
bin	0.008	2
bin	0.009	1
bin	0.01	2
bin	0.011	1
bin	0.012	0
bin	0.013	0
bin	0.014	0
bin	0.015	0
bin	0.016	1
bin	0.017	0
bin	0.018	2
bin	0.019	1
bin	0.02	0
bin	0.021	0
bin	0.022	0
bin	0.023	0
bin	0.024	0
bin	0.025	0
bin	0.026	0
bin	0.027	0
bin	0.028	0
bin	0.029	1
bin	0.03	1
bin	0.031	1
bin	0.032	0
bin	0.033	0
bin	0.034	0
bin	0.035	0
bin	0.036	0
bin	0.037	0
bin	0.038	0
bin	0.039	0
bin	0.04	0
bin	0.041	0
bin	0.042	1
bin	0.043	0
bin	0.044	0
bin	0.045	0
bin	0.046	0
bin	0.047	0
bin	0.048	0
bin	0.049	0
bin	0.05	0
bin	0.051	0
bin	0.052	0
bin	0.053	0
bin	0.054	0
scalar RoutingScenario.node[1].wlan[0].mac.dcf.channelAccess.inProgressFrames queueLength:max 2
attr interpolationmode sample-hold
attr source "count(packetEnqueued) - count(packetDequeued)"
attr title "queue length, max"
scalar RoutingScenario.node[1].wlan[0].mac.dcf.channelAccess.inProgressFrames queueLength:timeavg 0.61830176438332
attr interpolationmode sample-hold
attr source "count(packetEnqueued) - count(packetDequeued)"
attr title "queue length, timeavg"
scalar RoutingScenario.node[1].wlan[0].mac.dcf.channelAccess.contention channelAccessGranted:count 189
attr title "channel access granted, count"
scalar RoutingScenario.node[1].wlan[0].mac.dcf.channelAccess.contention stateChanged:count 3930
attr interpolationmode none
attr title "contention state changed, count"
scalar RoutingScenario.node[1].wlan[0].mac.dcf.channelAccess channelOwnershipChanged:count 378
attr interpolationmode sample-hold
attr title "channel ownership, count"
scalar RoutingScenario.node[1].wlan[0].mac.dcf.originatorMacDataService packetAggregated:count 0
attr title "packets aggregated, count"
scalar RoutingScenario.node[1].wlan[0].mac.dcf.originatorMacDataService packetFragmented:count 0
attr title "packets fragmented, count"
scalar RoutingScenario.node[1].wlan[0].mac.dcf.recipientMacDataService packetDeaggregated:count 0
attr title "packets deaggregated, count"
scalar RoutingScenario.node[1].wlan[0].mac.dcf.recipientMacDataService packetDefragmented:count 70
attr title "packets defragmented, count"
scalar RoutingScenario.node[1].wlan[0].mac.dcf.recipientMacDataService packetDropDuplicateDetected:count 0
attr interpolationmode none
attr source packetDropReasonIsDuplicateDetected(packetDropped)
attr title "packet drops: duplicate detected, count"
scalar RoutingScenario.node[1].wlan[0].mac.dcf.recipientMacDataService packetDropDuplicateDetected:sum(packetBytes) 0
attr interpolationmode none
attr source packetDropReasonIsDuplicateDetected(packetDropped)
attr title "packet drops: duplicate detected, sum(packetBytes)"
scalar RoutingScenario.node[1].wlan[0].mac.dcf.recoveryProcedure retryLimitReached:count 0
attr title "retry limit reached, count"
scalar RoutingScenario.node[1].wlan[0].mac.dcf frameSequenceFinished:count 189
attr title "finished frame sequences, count"
statistic RoutingScenario.node[1].wlan[0].mac.dcf frameSequenceDuration:histogram
field count 189
field mean 0.00083365118776191
field stddev 0.00014842102291437
field min 8.8e-05
field max 0.001861480909
field sum 0.157560074487
field sqrsum 0.00013549155764802
attr source frameSequenceDuration(frameSequenceFinished)
attr title "frame sequence durations, histogram"
bin	-inf	0
bin	0	0
bin	5e-05	2
bin	0.0001	1
bin	0.00015	2
bin	0.0002	0
bin	0.00025	0
bin	0.0003	0
bin	0.00035	0
bin	0.0004	0
bin	0.00045	0
bin	0.0005	0
bin	0.00055	0
bin	0.0006	0
bin	0.00065	0
bin	0.0007	0
bin	0.00075	0
bin	0.0008	182
bin	0.00085	0
bin	0.0009	0
bin	0.00095	0
bin	0.001	0
bin	0.00105	0
bin	0.0011	0
bin	0.00115	0
bin	0.0012	0
bin	0.00125	0
bin	0.0013	0
bin	0.00135	0
bin	0.0014	0
bin	0.00145	0
bin	0.0015	0
bin	0.00155	1
bin	0.0016	0
bin	0.00165	0
bin	0.0017	0
bin	0.00175	0
bin	0.0018	0
bin	0.00185	1
bin	0.0019	0
bin	0.00195	0
bin	0.002	0
bin	0.00205	0
bin	0.0021	0
bin	0.00215	0
bin	0.0022	0
bin	0.00225	0
bin	0.0023	0
bin	0.00235	0
statistic RoutingScenario.node[1].wlan[0].mac.dcf frameSequenceNumPackets:histogram
field count 189
field mean 1.984126984127
field stddev 0.12531621603778
field min 1
field max 2
field sum 375
field sqrsum 747
attr source frameSequenceNumPackets(frameSequenceFinished)
attr title "frame sequences: number of packets, histogram"
bin	-inf	0
bin	0	0
bin	1	3
bin	2	186
bin	3	0
scalar RoutingScenario.node[1].wlan[0].mac.dcf packetReceivedFromPeer:count 191
attr interpolationmode none
attr title "packets received, count"
scalar RoutingScenario.node[1].wlan[0].mac.dcf packetReceivedFromPeer:sum(packetBytes) 62946
attr interpolationmode none
attr title "packets received, sum(packetBytes)"
scalar RoutingScenario.node[1].wlan[0].mac.dcf packetReceivedFromPeerUnicast:count 180
attr interpolationmode none
attr source ieee80211Unicast(packetReceivedFromPeer)
attr title "packets received: unicast, count"
scalar RoutingScenario.node[1].wlan[0].mac.dcf packetReceivedFromPeerUnicast:sum(packetBytes) 62136
attr interpolationmode none
attr source ieee80211Unicast(packetReceivedFromPeer)
attr title "packets received: unicast, sum(packetBytes)"
scalar RoutingScenario.node[1].wlan[0].mac.dcf packetReceivedFromPeerMulticast:count 11
attr interpolationmode none
attr source ieee80211Multicast(packetReceivedFromPeer)
attr title "packets received: multicast, count"
scalar RoutingScenario.node[1].wlan[0].mac.dcf packetReceivedFromPeerMulticast:sum(packetBytes) 810
attr interpolationmode none
attr source ieee80211Multicast(packetReceivedFromPeer)
attr title "packets received: multicast, sum(packetBytes)"
scalar RoutingScenario.node[1].wlan[0].mac.dcf packetReceivedFromPeerBroadcast:count 11
attr interpolationmode none
attr source ieee80211Broadcast(packetReceivedFromPeer)
attr title "packets received: broadcast, count"
scalar RoutingScenario.node[1].wlan[0].mac.dcf packetReceivedFromPeerBroadcast:sum(packetBytes) 810
attr interpolationmode none
attr source ieee80211Broadcast(packetReceivedFromPeer)
attr title "packets received: broadcast, sum(packetBytes)"
scalar RoutingScenario.node[1].wlan[0].mac.dcf packetReceivedFromPeerWithRetry:count 21
attr interpolationmode none
attr source ieee80211Retry(packetReceivedFromPeer)
attr title "packets received: with retry, count"
scalar RoutingScenario.node[1].wlan[0].mac.dcf packetReceivedFromPeerWithRetry:sum(packetBytes) 21218
attr interpolationmode none
attr source ieee80211Retry(packetReceivedFromPeer)
attr title "packets received: with retry, sum(packetBytes)"
scalar RoutingScenario.node[1].wlan[0].mac.dcf packetReceivedFromPeerWithoutRetry:count 170
attr interpolationmode none
attr source ieee80211NotRetry(packetReceivedFromPeer)
attr title "packets received: without retry, count"
scalar RoutingScenario.node[1].wlan[0].mac.dcf packetReceivedFromPeerWithoutRetry:sum(packetBytes) 41728
attr interpolationmode none
attr source ieee80211NotRetry(packetReceivedFromPeer)
attr title "packets received: without retry, sum(packetBytes)"
scalar RoutingScenario.node[1].wlan[0].mac.dcf packetSentToPeer:count 248
attr interpolationmode none
attr title "packets sent, count"
scalar RoutingScenario.node[1].wlan[0].mac.dcf packetSentToPeer:sum(packetBytes) 195832
attr interpolationmode none
attr title "packets sent, sum(packetBytes)"
scalar RoutingScenario.node[1].wlan[0].mac.dcf packetSentToPeerUnicast:count 245
attr interpolationmode none
attr source ieee80211Unicast(packetSentToPeer)
attr title "packets sent: unicast, count"
scalar RoutingScenario.node[1].wlan[0].mac.dcf packetSentToPeerUnicast:sum(packetBytes) 195634
attr interpolationmode none
attr source ieee80211Unicast(packetSentToPeer)
attr title "packets sent: unicast, sum(packetBytes)"
scalar RoutingScenario.node[1].wlan[0].mac.dcf packetSentToPeerMulticast:count 3
attr interpolationmode none
attr source ieee80211Multicast(packetSentToPeer)
attr title "packets sent: multicast, count"
scalar RoutingScenario.node[1].wlan[0].mac.dcf packetSentToPeerMulticast:sum(packetBytes) 198
attr interpolationmode none
attr source ieee80211Multicast(packetSentToPeer)
attr title "packets sent: multicast, sum(packetBytes)"
scalar RoutingScenario.node[1].wlan[0].mac.dcf packetSentToPeerBroadcast:count 3
attr interpolationmode none
attr source ieee80211Broadcast(packetSentToPeer)
attr title "packets sent: broadcast , count"
scalar RoutingScenario.node[1].wlan[0].mac.dcf packetSentToPeerBroadcast:sum(packetBytes) 198
attr interpolationmode none
attr source ieee80211Broadcast(packetSentToPeer)
attr title "packets sent: broadcast , sum(packetBytes)"
scalar RoutingScenario.node[1].wlan[0].mac.dcf packetSentToPeerWithRetry:count 65
attr interpolationmode none
attr source ieee80211Retry(packetSentToPeer)
attr title "packets sent: with retry, count"
scalar RoutingScenario.node[1].wlan[0].mac.dcf packetSentToPeerWithRetry:sum(packetBytes) 68770
attr interpolationmode none
attr source ieee80211Retry(packetSentToPeer)
attr title "packets sent: with retry, sum(packetBytes)"
scalar RoutingScenario.node[1].wlan[0].mac.dcf packetSentToPeerWithoutRetry:count 183
attr interpolationmode none
attr source ieee80211NotRetry(packetSentToPeer)
attr title "packets sent: without retry, count"
scalar RoutingScenario.node[1].wlan[0].mac.dcf packetSentToPeerWithoutRetry:sum(packetBytes) 127062
attr interpolationmode none
attr source ieee80211NotRetry(packetSentToPeer)
attr title "packets sent: without retry, sum(packetBytes)"
scalar RoutingScenario.node[1].wlan[0].mac.dcf packetDrop:count 270
attr interpolationmode none
attr source packetDropped
attr title "packet drops, count"
scalar RoutingScenario.node[1].wlan[0].mac.dcf packetDrop:sum(packetBytes) 125164
attr interpolationmode none
attr source packetDropped
attr title "packet drops, sum(packetBytes)"
scalar RoutingScenario.node[1].wlan[0].mac.dcf packetDropNotAddressedToUs:count 270
attr interpolationmode none
attr source packetDropReasonIsNotAddressedToUs(packetDropped)
attr title "packet drops: not addressed to us, count"
scalar RoutingScenario.node[1].wlan[0].mac.dcf packetDropNotAddressedToUs:sum(packetBytes) 125164
attr interpolationmode none
attr source packetDropReasonIsNotAddressedToUs(packetDropped)
attr title "packet drops: not addressed to us, sum(packetBytes)"
scalar RoutingScenario.node[1].wlan[0].mac.dcf packetDropQueueOverflow:count 0
attr interpolationmode none
attr source packetDropReasonIsQueueOverflow(packetDropped)
attr title "packet drops: queue overflow, count"
scalar RoutingScenario.node[1].wlan[0].mac.dcf packetDropQueueOverflow:sum(packetBytes) 0
attr interpolationmode none
attr source packetDropReasonIsQueueOverflow(packetDropped)
attr title "packet drops: queue overflow, sum(packetBytes)"
scalar RoutingScenario.node[1].wlan[0].mac.dcf packetDropRetryLimitReached:count 0
attr interpolationmode none
attr source packetDropReasonIsRetryLimitReached(packetDropped)
attr title "packet drops: retry limit reached, count"
scalar RoutingScenario.node[1].wlan[0].mac.dcf packetDropRetryLimitReached:sum(packetBytes) 0
attr interpolationmode none
attr source packetDropReasonIsRetryLimitReached(packetDropped)
attr title "packet drops: retry limit reached, sum(packetBytes)"
scalar RoutingScenario.node[1].wlan[0].mac.dcf linkBroken:count 0
attr interpolationmode none
attr title "link breaks, count"
scalar RoutingScenario.node[1].wlan[0].mac packetReceivedFromLower:count 612
attr interpolationmode none
attr title "packets received from lower layer, count"
scalar RoutingScenario.node[1].wlan[0].mac packetReceivedFromLower:sum(packetBytes) 304656
attr interpolationmode none
attr title "packets received from lower layer, sum(packetBytes)"
scalar RoutingScenario.node[1].wlan[0].mac packetSentToLower:count 248
attr interpolationmode none
attr title "packets sent to lower layer, count"
scalar RoutingScenario.node[1].wlan[0].mac packetSentToLower:sum(packetBytes) 195832
attr interpolationmode none
attr title "packets sent to lower layer, sum(packetBytes)"
scalar RoutingScenario.node[1].wlan[0].mac packetReceivedFromUpper:count 124
attr interpolationmode none
attr title "packets received from upper layer, count"
scalar RoutingScenario.node[1].wlan[0].mac packetReceivedFromUpper:sum(packetBytes) 122764
attr interpolationmode none
attr title "packets received from upper layer, sum(packetBytes)"
scalar RoutingScenario.node[1].wlan[0].mac packetSentToUpper:count 70
attr interpolationmode none
attr title "packets sent to upper layer, count"
scalar RoutingScenario.node[1].wlan[0].mac packetSentToUpper:sum(packetBytes) 59292
attr interpolationmode none
attr title "packets sent to upper layer, sum(packetBytes)"
scalar RoutingScenario.node[1].wlan[0].mac packetDrop:count 420
attr interpolationmode none
attr source packetDropped
attr title "packet drops, count"
scalar RoutingScenario.node[1].wlan[0].mac packetDrop:sum(packetBytes) 240652
attr interpolationmode none
attr source packetDropped
attr title "packet drops, sum(packetBytes)"
scalar RoutingScenario.node[1].wlan[0].mac packetDropIncorrectlyReceived:count 150
attr interpolationmode none
attr source packetDropReasonIsIncorrectlyReceived(packetDropped)
attr title "packet drops: incorrectly received, count"
scalar RoutingScenario.node[1].wlan[0].mac packetDropIncorrectlyReceived:sum(packetBytes) 115488
attr interpolationmode none
attr source packetDropReasonIsIncorrectlyReceived(packetDropped)
attr title "packet drops: incorrectly received, sum(packetBytes)"
scalar RoutingScenario.node[1].wlan[0].mac packetDropNotAddressedToUs:count 270
attr interpolationmode none
attr source packetDropReasonIsNotAddressedToUs(packetDropped)
attr title "packet drops: not addressed to us, count"
scalar RoutingScenario.node[1].wlan[0].mac packetDropNotAddressedToUs:sum(packetBytes) 125164
attr interpolationmode none
attr source packetDropReasonIsNotAddressedToUs(packetDropped)
attr title "packet drops: not addressed to us, sum(packetBytes)"
scalar RoutingScenario.node[1].wlan[0].mac packetDropQueueOverflow:count 0
attr interpolationmode none
attr source packetDropReasonIsQueueOverflow(packetDropped)
attr title "packet drops: queue overflow, count"
scalar RoutingScenario.node[1].wlan[0].mac packetDropQueueOverflow:sum(packetBytes) 0
attr interpolationmode none
attr source packetDropReasonIsQueueOverflow(packetDropped)
attr title "packet drops: queue overflow, sum(packetBytes)"
scalar RoutingScenario.node[1].wlan[0].mac packetDropRetryLimitReached:count 0
attr interpolationmode none
attr source packetDropReasonIsRetryLimitReached(packetDropped)
attr title "packet drops: retry limit reached, count"
scalar RoutingScenario.node[1].wlan[0].mac packetDropRetryLimitReached:sum(packetBytes) 0
attr interpolationmode none
attr source packetDropReasonIsRetryLimitReached(packetDropped)
attr title "packet drops: retry limit reached, sum(packetBytes)"
scalar RoutingScenario.node[1].wlan[0].mac packetDropDuplicateDetected:count 0
attr interpolationmode none
attr source packetDropReasonIsDuplicateDetected(packetDropped)
attr title "packet drops: duplicate detected, count"
scalar RoutingScenario.node[1].wlan[0].mac packetDropDuplicateDetected:sum(packetBytes) 0
attr interpolationmode none
attr source packetDropReasonIsDuplicateDetected(packetDropped)
attr title "packet drops: duplicate detected, sum(packetBytes)"
scalar RoutingScenario.node[1].wlan[0].mac packetDropOther:count 0
attr interpolationmode none
attr source packetDropReasonIsOther(packetDropped)
attr title "packet drops: other, count"
scalar RoutingScenario.node[1].wlan[0].mac packetDropOther:sum(packetBytes) 0
attr interpolationmode none
attr source packetDropReasonIsOther(packetDropped)
attr title "packet drops: other, sum(packetBytes)"
scalar RoutingScenario.node[1].wlan[0].mac linkBroken:count 0
attr interpolationmode none
attr title "link breaks, count"
statistic RoutingScenario.node[1].wlan[0].radio radioChannel:histogram
field count 1
field mean 3
field stddev -nan
field min 3
field max 3
field sum 3
field sqrsum 9
attr interpolationmode sample-hold
attr source radioChannelChanged
attr title "Radio channel, histogram"
bin	-inf	0
bin	2	0
bin	3	1
bin	4	0
scalar RoutingScenario.node[1].wlan[0].radio radioMode:count 499
attr interpolationmode sample-hold
attr source radioModeChanged
attr title "Radio mode, count"
scalar RoutingScenario.node[1].wlan[0].radio receptionState:count 1760
attr interpolationmode sample-hold
attr source receptionStateChanged
attr title "Radio reception state, count"
scalar RoutingScenario.node[1].wlan[0].radio transmissionState:count 992
attr interpolationmode sample-hold
attr source transmissionStateChanged
attr title "Radio transmission state, count"
statistic RoutingScenario.node[1].wlan[0].radio minSnir:histogram
field count 612
field mean 528.95544525454
field stddev 963.83711606342
field min 0.089465177890332
field max 4501.4572876734
field sum 323720.73249578
field sqrsum 738841837.82562
attr source minimumSnir(packetSentToUpper)
attr title "Min SNIR, histogram"
bin	-inf	0
bin	0	224
bin	100	4
bin	200	1
bin	300	2
bin	400	316
bin	500	0
bin	600	0
bin	700	0
bin	800	33
bin	900	0
bin	1000	0
bin	1100	0
bin	1200	0
bin	1300	0
bin	1400	0
bin	1500	0
bin	1600	0
bin	1700	0
bin	1800	0
bin	1900	0
bin	2000	0
bin	2100	0
bin	2200	0
bin	2300	0
bin	2400	0
bin	2500	0
bin	2600	0
bin	2700	0
bin	2800	0
bin	2900	0
bin	3000	0
bin	3100	0
bin	3200	0
bin	3300	0
bin	3400	0
bin	3500	0
bin	3600	0
bin	3700	0
bin	3800	0
bin	3900	0
bin	4000	0
bin	4100	0
bin	4200	0
bin	4300	0
bin	4400	31
bin	4500	1
bin	4600	0
bin	4700	0
bin	4800	0
bin	4900	0
bin	5000	0
bin	5100	0
bin	5200	0
bin	5300	0
bin	5400	0
bin	5500	0
bin	5600	0
bin	5700	0
statistic RoutingScenario.node[1].wlan[0].radio packetErrorRate:histogram
field count 612
field mean 0.24831750689095
field stddev 0.42958129327535
field min 0
field max 1
field sum 151.97031421726
field sqrsum 150.49088302999
attr source packetErrorRate(packetSentToUpper)
attr title "Packet error rate, histogram"
bin	-inf	0
bin	0	457
bin	0.02	0
bin	0.04	0
bin	0.06	0
bin	0.08	1
bin	0.1	0
bin	0.12	0
bin	0.14	0
bin	0.16	0
bin	0.18	0
bin	0.2	0
bin	0.22	0
bin	0.24	0
bin	0.26	0
bin	0.28	0
bin	0.3	0
bin	0.32	0
bin	0.34	0
bin	0.36	0
bin	0.38	0
bin	0.4	0
bin	0.42	0
bin	0.44	0
bin	0.46	0
bin	0.48	0
bin	0.5	0
bin	0.52	0
bin	0.54	0
bin	0.56	0
bin	0.58	0
bin	0.6	0
bin	0.62	2
bin	0.64	4
bin	0.66	0
bin	0.68	0
bin	0.7	0
bin	0.72	0
bin	0.74	0
bin	0.76	0
bin	0.78	0
bin	0.8	0
bin	0.82	0
bin	0.84	0
bin	0.86	0
bin	0.88	0
bin	0.9	0
bin	0.92	0
bin	0.94	0
bin	0.96	0
bin	0.98	4
bin	1	144
bin	1.02	0
bin	1.04	0
bin	1.06	0
bin	1.08	0
bin	1.1	0
bin	1.12	0
bin	1.14	0
bin	1.16	0
bin	1.18	0
bin	1.2	0
bin	1.22	0
bin	1.24	0
bin	1.26	0
statistic RoutingScenario.node[1].wlan[0].radio bitErrorRate:histogram
field count 0
field mean -nan
field stddev nan
field min nan
field max nan
field sum 0
field sqrsum 0
attr source bitErrorRate(packetSentToUpper)
attr title "Bit error rate, histogram"
bin	-inf	0
bin	0	0
bin	1	0
statistic RoutingScenario.node[1].wlan[0].radio symbolErrorRate:histogram
field count 0
field mean -nan
field stddev nan
field min nan
field max nan
field sum 0
field sqrsum 0
attr source symbolErrorRate(packetSentToUpper)
attr title "Symbol error rate, histogram"
bin	-inf	0
bin	0	0
bin	1	0
scalar RoutingScenario.node[1].ipv4.ip packetDropAddressResolutionFailed:count 0
attr interpolationmode none
attr source packetDropReasonIsAddressResolutionFailed(packetDropped)
attr title "packet drop: address resolution failed, count"
scalar RoutingScenario.node[1].ipv4.ip packetDropAddressResolutionFailed:sum(packetBytes) 0
attr interpolationmode none
attr source packetDropReasonIsAddressResolutionFailed(packetDropped)
attr title "packet drop: address resolution failed, sum(packetBytes)"
scalar RoutingScenario.node[1].ipv4.ip packetDropHopLimitReached:count 0
attr interpolationmode none
attr source packetDropReasonIsHopLimitReached(packetDropped)
attr title "packet drop: hop limit reached, count"
scalar RoutingScenario.node[1].ipv4.ip packetDropHopLimitReached:sum(packetBytes) 0
attr interpolationmode none
attr source packetDropReasonIsHopLimitReached(packetDropped)
attr title "packet drop: hop limit reached, sum(packetBytes)"
scalar RoutingScenario.node[1].ipv4.ip packetDropForwardingDisabled:count 0
attr interpolationmode none
attr source packetDropReasonIsForwardingDisabled(packetDropped)
attr title "packet drop: forwarding disabled, count"
scalar RoutingScenario.node[1].ipv4.ip packetDropForwardingDisabled:sum(packetBytes) 0
attr interpolationmode none
attr source packetDropReasonIsForwardingDisabled(packetDropped)
attr title "packet drop: forwarding disabled, sum(packetBytes)"
scalar RoutingScenario.node[1].ipv4.ip packetDropNoInterfaceFound:count 0
attr interpolationmode none
attr source packetDropReasonIsNoInterfaceFound(packetDropped)
attr title "packet drop: no interface found, count"
scalar RoutingScenario.node[1].ipv4.ip packetDropNoInterfaceFound:sum(packetBytes) 0
attr interpolationmode none
attr source packetDropReasonIsNoInterfaceFound(packetDropped)
attr title "packet drop: no interface found, sum(packetBytes)"
scalar RoutingScenario.node[1].ipv4.ip packetDropNoRouteFound:count 0
attr interpolationmode none
attr source packetDropReasonIsNoRouteFound(packetDropped)
attr title "packet drop: no route found, count"
scalar RoutingScenario.node[1].ipv4.ip packetDropNoRouteFound:sum(packetBytes) 0
attr interpolationmode none
attr source packetDropReasonIsNoRouteFound(packetDropped)
attr title "packet drop: no route found, sum(packetBytes)"
scalar RoutingScenario.node[1].ipv4.ip packetDropUndefined:count 0
attr interpolationmode none
attr source packetDropReasonIsUndefined(packetDropped)
attr title "packet drop: undefined, count"
scalar RoutingScenario.node[1].ipv4.ip packetDropUndefined:sum(packetBytes) 0
attr interpolationmode none
attr source packetDropReasonIsUndefined(packetDropped)
attr title "packet drop: undefined, sum(packetBytes)"
scalar RoutingScenario.node[1].ipv4.arp arpResolutionFailed:count 0
attr title "ARP failed resolutions, count"
scalar RoutingScenario.node[1].ipv4.arp arpResolutionCompleted:count 4
attr title "ARP completed resolutions, count"
scalar RoutingScenario.node[1].ipv4.arp arpResolutionInitiated:count 2
attr title "ARP initiated resolutions, count"
scalar RoutingScenario.node[1].ipv4.arp arpReplySent:count 1
attr source arpReplySent
attr title "ARP replies sent, count"
scalar RoutingScenario.node[1].ipv4.arp arpReplySent:sum(packetBytes) 28
attr source arpReplySent
attr title "ARP replies sent, sum(packetBytes)"
scalar RoutingScenario.node[1].ipv4.arp arpRequestSent:count 2
attr source arpRequestSent
attr title "ARP request sent, count"
scalar RoutingScenario.node[1].ipv4.arp arpRequestSent:sum(packetBytes) 56
attr source arpRequestSent
attr title "ARP request sent, sum(packetBytes)"
scalar RoutingScenario.node[1].udp packetReceived:count 8
attr interpolationmode none
attr source packetReceived
attr title "packets received, count"
scalar RoutingScenario.node[1].udp packetReceived:sum(packetBytes) 256
attr interpolationmode none
attr source packetReceived
attr title "packets received, sum(packetBytes)"
scalar RoutingScenario.node[1].udp packetSent:count 65
attr interpolationmode none
attr source packetSent
attr title "packets sent, count"
scalar RoutingScenario.node[1].udp packetSent:sum(packetBytes) 62584
attr interpolationmode none
attr source packetSent
attr title "packets sent, sum(packetBytes)"
scalar RoutingScenario.node[1].udp passedUpPk:count 8
attr interpolationmode none
attr source packetSentToUpper
attr title "packets passed up, count"
scalar RoutingScenario.node[1].udp droppedPkWrongPort:count 0
attr interpolationmode none
attr source packetDropReasonIsNoPortFound(packetDropped)
attr title "packets dropped (wrong port), count"
scalar RoutingScenario.node[1].udp droppedPkBadChecksum:count 0
attr interpolationmode none
attr source packetDropReasonIsIncorrectlyReceived(packetDropped)
attr title "packets dropped (checksum error), count"
scalar RoutingScenario.node[1].app[0] "packets sent" 62
scalar RoutingScenario.node[1].app[0] "packets received" 0
scalar RoutingScenario.node[1].app[0] packetReceived:count 0
attr interpolationmode none
attr source packetReceived
attr title "packets received, count"
scalar RoutingScenario.node[1].app[0] packetReceived:sum(packetBytes) 0
attr interpolationmode none
attr source packetReceived
attr title "packets received, sum(packetBytes)"
statistic RoutingScenario.node[1].app[0] rcvdPkLifetime:stats
field count 0
field mean -nan
field stddev nan
field min nan
field max nan
field sum 0
field sqrsum 0
attr interpolationmode none
attr source dataAge(packetReceived)
attr title "received packet lifetime, stats"
attr unit s
scalar RoutingScenario.node[1].app[0] packetSent:count 62
attr interpolationmode none
attr source packetSent
attr title "packets sent, count"
scalar RoutingScenario.node[1].app[0] packetSent:sum(packetBytes) 62000
attr interpolationmode none
attr source packetSent
attr title "packets sent, sum(packetBytes)"
scalar RoutingScenario.node[2].lo[0].lo rcvdPkFromHl:count 0
attr interpolationmode none
attr source packetReceivedFromUpper
attr title "packets received from higher layer, count"
scalar RoutingScenario.node[2].lo[0].lo rcvdPkFromHl:sum(packetBytes) 0
attr interpolationmode none
attr source packetReceivedFromUpper
attr title "packets received from higher layer, sum(packetBytes)"
scalar RoutingScenario.node[2].lo[0].lo passedUpPk:count 0
attr interpolationmode none
attr source packetSentToUpper
attr title "packets passed to higher layer, count"
scalar RoutingScenario.node[2].lo[0].lo passedUpPk:sum(packetBytes) 0
attr interpolationmode none
attr source packetSentToUpper
attr title "packets passed to higher layer, sum(packetBytes)"
scalar RoutingScenario.node[2].wlan[0].mac.dcf.channelAccess.pendingQueue packetPopped:count 3
attr interpolationmode none
attr title "packet popped, count"
scalar RoutingScenario.node[2].wlan[0].mac.dcf.channelAccess.pendingQueue packetPopped:sum(packetBytes) 246
attr interpolationmode none
attr title "packet popped, sum(packetBytes)"
statistic RoutingScenario.node[2].wlan[0].mac.dcf.channelAccess.pendingQueue queueingTime:histogram
field count 3
field mean 0
field stddev 0
field min 0
field max 0
field sum 0
field sqrsum 0
attr interpolationmode none
attr source queueingTime(packetPopped)
attr title "queueing times, histogram"
attr unit s
bin	-inf	0
bin	-0.5	0
bin	-0.48	0
bin	-0.46	0
bin	-0.44	0
bin	-0.42	0
bin	-0.4	0
bin	-0.38	0
bin	-0.36	0
bin	-0.34	0
bin	-0.32	0
bin	-0.3	0
bin	-0.28	0
bin	-0.26	0
bin	-0.24	0
bin	-0.22	0
bin	-0.2	0
bin	-0.18	0
bin	-0.16	0
bin	-0.14	0
bin	-0.12	0
bin	-0.1	0
bin	-0.08	0
bin	-0.06	0
bin	-0.04	0
bin	-0.02	0
bin	0	3
bin	0.02	0
bin	0.04	0
bin	0.06	0
bin	0.08	0
bin	0.1	0
bin	0.12	0
bin	0.14	0
bin	0.16	0
bin	0.18	0
bin	0.2	0
bin	0.22	0
bin	0.24	0
bin	0.26	0
bin	0.28	0
bin	0.3	0
bin	0.32	0
bin	0.34	0
bin	0.36	0
bin	0.38	0
bin	0.4	0
bin	0.42	0
bin	0.44	0
bin	0.46	0
bin	0.48	0
bin	0.5	0
scalar RoutingScenario.node[2].wlan[0].mac.dcf.channelAccess.pendingQueue queueLength:max 1
attr interpolationmode sample-hold
attr source "count(packetPushed) - count(packetPopped) - count(packetRemoved) - count(packetDropped)"
attr title "queue length, max"
scalar RoutingScenario.node[2].wlan[0].mac.dcf.channelAccess.pendingQueue queueLength:timeavg 0
attr interpolationmode sample-hold
attr source "count(packetPushed) - count(packetPopped) - count(packetRemoved) - count(packetDropped)"
attr title "queue length, timeavg"
scalar RoutingScenario.node[2].wlan[0].mac.dcf.channelAccess.pendingQueue packetPushed:count 3
attr interpolationmode none
attr title "packet pushed, count"
scalar RoutingScenario.node[2].wlan[0].mac.dcf.channelAccess.pendingQueue packetPushed:sum(packetBytes) 246
attr interpolationmode none
attr title "packet pushed, sum(packetBytes)"
scalar RoutingScenario.node[2].wlan[0].mac.dcf.channelAccess.pendingQueue packetDropQueueOverflow:count 0
attr interpolationmode none
attr source packetDropReasonIsQueueOverflow(packetDropped)
attr title "packet drops: queue overflow, count"
scalar RoutingScenario.node[2].wlan[0].mac.dcf.channelAccess.pendingQueue packetDropQueueOverflow:sum(packetBytes) 0
attr interpolationmode none
attr source packetDropReasonIsQueueOverflow(packetDropped)
attr title "packet drops: queue overflow, sum(packetBytes)"
scalar RoutingScenario.node[2].wlan[0].mac.dcf.channelAccess.pendingQueue packetRemoved:count 0
attr interpolationmode none
attr title "packets removed, count"
scalar RoutingScenario.node[2].wlan[0].mac.dcf.channelAccess.pendingQueue packetRemoved:sum(packetBytes) 0
attr interpolationmode none
attr title "packets removed, sum(packetBytes)"
statistic RoutingScenario.node[2].wlan[0].mac.dcf.channelAccess.inProgressFrames queueingTime:histogram
field count 3
field mean 0.000104
field stddev 0
field min 0.000104
field max 0.000104
field sum 0.000312
field sqrsum 3.2448e-08
attr interpolationmode none
attr source queueingTime(packetDequeued)
attr title "queueing times, histogram"
bin	-inf	0
bin	0	3
bin	0.01	0
bin	0.02	0
bin	0.03	0
bin	0.04	0
bin	0.05	0
bin	0.06	0
bin	0.07	0
bin	0.08	0
bin	0.09	0
bin	0.1	0
bin	0.11	0
bin	0.12	0
bin	0.13	0
bin	0.14	0
bin	0.15	0
bin	0.16	0
bin	0.17	0
bin	0.18	0
bin	0.19	0
bin	0.2	0
bin	0.21	0
bin	0.22	0
bin	0.23	0
bin	0.24	0
bin	0.25	0
bin	0.26	0
bin	0.27	0
bin	0.28	0
bin	0.29	0
bin	0.3	0
bin	0.31	0
bin	0.32	0
bin	0.33	0
bin	0.34	0
bin	0.35	0
bin	0.36	0
bin	0.37	0
bin	0.38	0
bin	0.39	0
bin	0.4	0
bin	0.41	0
bin	0.42	0
bin	0.43	0
bin	0.44	0
bin	0.45	0
bin	0.46	0
bin	0.47	0
bin	0.48	0
bin	0.49	0
bin	0.5	0
bin	0.51	0
scalar RoutingScenario.node[2].wlan[0].mac.dcf.channelAccess.inProgressFrames queueLength:max 1
attr interpolationmode sample-hold
attr source "count(packetEnqueued) - count(packetDequeued)"
attr title "queue length, max"
scalar RoutingScenario.node[2].wlan[0].mac.dcf.channelAccess.inProgressFrames queueLength:timeavg 0.00038243352414365
attr interpolationmode sample-hold
attr source "count(packetEnqueued) - count(packetDequeued)"
attr title "queue length, timeavg"
scalar RoutingScenario.node[2].wlan[0].mac.dcf.channelAccess.contention channelAccessGranted:count 3
attr title "channel access granted, count"
scalar RoutingScenario.node[2].wlan[0].mac.dcf.channelAccess.contention stateChanged:count 98
attr interpolationmode none
attr title "contention state changed, count"
scalar RoutingScenario.node[2].wlan[0].mac.dcf.channelAccess channelOwnershipChanged:count 6
attr interpolationmode sample-hold
attr title "channel ownership, count"
scalar RoutingScenario.node[2].wlan[0].mac.dcf.originatorMacDataService packetAggregated:count 0
attr title "packets aggregated, count"
scalar RoutingScenario.node[2].wlan[0].mac.dcf.originatorMacDataService packetFragmented:count 0
attr title "packets fragmented, count"
scalar RoutingScenario.node[2].wlan[0].mac.dcf.recipientMacDataService packetDeaggregated:count 0
attr title "packets deaggregated, count"
scalar RoutingScenario.node[2].wlan[0].mac.dcf.recipientMacDataService packetDefragmented:count 0
attr title "packets defragmented, count"
scalar RoutingScenario.node[2].wlan[0].mac.dcf.recipientMacDataService packetDropDuplicateDetected:count 0
attr interpolationmode none
attr source packetDropReasonIsDuplicateDetected(packetDropped)
attr title "packet drops: duplicate detected, count"
scalar RoutingScenario.node[2].wlan[0].mac.dcf.recipientMacDataService packetDropDuplicateDetected:sum(packetBytes) 0
attr interpolationmode none
attr source packetDropReasonIsDuplicateDetected(packetDropped)
attr title "packet drops: duplicate detected, sum(packetBytes)"
scalar RoutingScenario.node[2].wlan[0].mac.dcf.recoveryProcedure retryLimitReached:count 0
attr title "retry limit reached, count"
scalar RoutingScenario.node[2].wlan[0].mac.dcf frameSequenceFinished:count 3
attr title "finished frame sequences, count"
statistic RoutingScenario.node[2].wlan[0].mac.dcf frameSequenceDuration:histogram
field count 3
field mean 0.000104
field stddev 0
field min 0.000104
field max 0.000104
field sum 0.000312
field sqrsum 3.2448e-08
attr source frameSequenceDuration(frameSequenceFinished)
attr title "frame sequence durations, histogram"
bin	-inf	0
bin	0	3
bin	0.01	0
bin	0.02	0
bin	0.03	0
bin	0.04	0
bin	0.05	0
bin	0.06	0
bin	0.07	0
bin	0.08	0
bin	0.09	0
bin	0.1	0
bin	0.11	0
bin	0.12	0
bin	0.13	0
bin	0.14	0
bin	0.15	0
bin	0.16	0
bin	0.17	0
bin	0.18	0
bin	0.19	0
bin	0.2	0
bin	0.21	0
bin	0.22	0
bin	0.23	0
bin	0.24	0
bin	0.25	0
bin	0.26	0
bin	0.27	0
bin	0.28	0
bin	0.29	0
bin	0.3	0
bin	0.31	0
bin	0.32	0
bin	0.33	0
bin	0.34	0
bin	0.35	0
bin	0.36	0
bin	0.37	0
bin	0.38	0
bin	0.39	0
bin	0.4	0
bin	0.41	0
bin	0.42	0
bin	0.43	0
bin	0.44	0
bin	0.45	0
bin	0.46	0
bin	0.47	0
bin	0.48	0
bin	0.49	0
bin	0.5	0
bin	0.51	0
statistic RoutingScenario.node[2].wlan[0].mac.dcf frameSequenceNumPackets:histogram
field count 3
field mean 1
field stddev 0
field min 1
field max 1
field sum 3
field sqrsum 3
attr source frameSequenceNumPackets(frameSequenceFinished)
attr title "frame sequences: number of packets, histogram"
bin	-inf	0
bin	0	0
bin	1	3
bin	2	0
scalar RoutingScenario.node[2].wlan[0].mac.dcf packetReceivedFromPeer:count 0
attr interpolationmode none
attr title "packets received, count"
scalar RoutingScenario.node[2].wlan[0].mac.dcf packetReceivedFromPeer:sum(packetBytes) 0
attr interpolationmode none
attr title "packets received, sum(packetBytes)"
scalar RoutingScenario.node[2].wlan[0].mac.dcf packetReceivedFromPeerUnicast:count 0
attr interpolationmode none
attr source ieee80211Unicast(packetReceivedFromPeer)
attr title "packets received: unicast, count"
scalar RoutingScenario.node[2].wlan[0].mac.dcf packetReceivedFromPeerUnicast:sum(packetBytes) 0
attr interpolationmode none
attr source ieee80211Unicast(packetReceivedFromPeer)
attr title "packets received: unicast, sum(packetBytes)"
scalar RoutingScenario.node[2].wlan[0].mac.dcf packetReceivedFromPeerMulticast:count 0
attr interpolationmode none
attr source ieee80211Multicast(packetReceivedFromPeer)
attr title "packets received: multicast, count"
scalar RoutingScenario.node[2].wlan[0].mac.dcf packetReceivedFromPeerMulticast:sum(packetBytes) 0
attr interpolationmode none
attr source ieee80211Multicast(packetReceivedFromPeer)
attr title "packets received: multicast, sum(packetBytes)"
scalar RoutingScenario.node[2].wlan[0].mac.dcf packetReceivedFromPeerBroadcast:count 0
attr interpolationmode none
attr source ieee80211Broadcast(packetReceivedFromPeer)
attr title "packets received: broadcast, count"
scalar RoutingScenario.node[2].wlan[0].mac.dcf packetReceivedFromPeerBroadcast:sum(packetBytes) 0
attr interpolationmode none
attr source ieee80211Broadcast(packetReceivedFromPeer)
attr title "packets received: broadcast, sum(packetBytes)"
scalar RoutingScenario.node[2].wlan[0].mac.dcf packetReceivedFromPeerWithRetry:count 0
attr interpolationmode none
attr source ieee80211Retry(packetReceivedFromPeer)
attr title "packets received: with retry, count"
scalar RoutingScenario.node[2].wlan[0].mac.dcf packetReceivedFromPeerWithRetry:sum(packetBytes) 0
attr interpolationmode none
attr source ieee80211Retry(packetReceivedFromPeer)
attr title "packets received: with retry, sum(packetBytes)"
scalar RoutingScenario.node[2].wlan[0].mac.dcf packetReceivedFromPeerWithoutRetry:count 0
attr interpolationmode none
attr source ieee80211NotRetry(packetReceivedFromPeer)
attr title "packets received: without retry, count"
scalar RoutingScenario.node[2].wlan[0].mac.dcf packetReceivedFromPeerWithoutRetry:sum(packetBytes) 0
attr interpolationmode none
attr source ieee80211NotRetry(packetReceivedFromPeer)
attr title "packets received: without retry, sum(packetBytes)"
scalar RoutingScenario.node[2].wlan[0].mac.dcf packetSentToPeer:count 3
attr interpolationmode none
attr title "packets sent, count"
scalar RoutingScenario.node[2].wlan[0].mac.dcf packetSentToPeer:sum(packetBytes) 246
attr interpolationmode none
attr title "packets sent, sum(packetBytes)"
scalar RoutingScenario.node[2].wlan[0].mac.dcf packetSentToPeerUnicast:count 0
attr interpolationmode none
attr source ieee80211Unicast(packetSentToPeer)
attr title "packets sent: unicast, count"
scalar RoutingScenario.node[2].wlan[0].mac.dcf packetSentToPeerUnicast:sum(packetBytes) 0
attr interpolationmode none
attr source ieee80211Unicast(packetSentToPeer)
attr title "packets sent: unicast, sum(packetBytes)"
scalar RoutingScenario.node[2].wlan[0].mac.dcf packetSentToPeerMulticast:count 3
attr interpolationmode none
attr source ieee80211Multicast(packetSentToPeer)
attr title "packets sent: multicast, count"
scalar RoutingScenario.node[2].wlan[0].mac.dcf packetSentToPeerMulticast:sum(packetBytes) 246
attr interpolationmode none
attr source ieee80211Multicast(packetSentToPeer)
attr title "packets sent: multicast, sum(packetBytes)"
scalar RoutingScenario.node[2].wlan[0].mac.dcf packetSentToPeerBroadcast:count 3
attr interpolationmode none
attr source ieee80211Broadcast(packetSentToPeer)
attr title "packets sent: broadcast , count"
scalar RoutingScenario.node[2].wlan[0].mac.dcf packetSentToPeerBroadcast:sum(packetBytes) 246
attr interpolationmode none
attr source ieee80211Broadcast(packetSentToPeer)
attr title "packets sent: broadcast , sum(packetBytes)"
scalar RoutingScenario.node[2].wlan[0].mac.dcf packetSentToPeerWithRetry:count 0
attr interpolationmode none
attr source ieee80211Retry(packetSentToPeer)
attr title "packets sent: with retry, count"
scalar RoutingScenario.node[2].wlan[0].mac.dcf packetSentToPeerWithRetry:sum(packetBytes) 0
attr interpolationmode none
attr source ieee80211Retry(packetSentToPeer)
attr title "packets sent: with retry, sum(packetBytes)"
scalar RoutingScenario.node[2].wlan[0].mac.dcf packetSentToPeerWithoutRetry:count 3
attr interpolationmode none
attr source ieee80211NotRetry(packetSentToPeer)
attr title "packets sent: without retry, count"
scalar RoutingScenario.node[2].wlan[0].mac.dcf packetSentToPeerWithoutRetry:sum(packetBytes) 246
attr interpolationmode none
attr source ieee80211NotRetry(packetSentToPeer)
attr title "packets sent: without retry, sum(packetBytes)"
scalar RoutingScenario.node[2].wlan[0].mac.dcf packetDrop:count 0
attr interpolationmode none
attr source packetDropped
attr title "packet drops, count"
scalar RoutingScenario.node[2].wlan[0].mac.dcf packetDrop:sum(packetBytes) 0
attr interpolationmode none
attr source packetDropped
attr title "packet drops, sum(packetBytes)"
scalar RoutingScenario.node[2].wlan[0].mac.dcf packetDropNotAddressedToUs:count 0
attr interpolationmode none
attr source packetDropReasonIsNotAddressedToUs(packetDropped)
attr title "packet drops: not addressed to us, count"
scalar RoutingScenario.node[2].wlan[0].mac.dcf packetDropNotAddressedToUs:sum(packetBytes) 0
attr interpolationmode none
attr source packetDropReasonIsNotAddressedToUs(packetDropped)
attr title "packet drops: not addressed to us, sum(packetBytes)"
scalar RoutingScenario.node[2].wlan[0].mac.dcf packetDropQueueOverflow:count 0
attr interpolationmode none
attr source packetDropReasonIsQueueOverflow(packetDropped)
attr title "packet drops: queue overflow, count"
scalar RoutingScenario.node[2].wlan[0].mac.dcf packetDropQueueOverflow:sum(packetBytes) 0
attr interpolationmode none
attr source packetDropReasonIsQueueOverflow(packetDropped)
attr title "packet drops: queue overflow, sum(packetBytes)"
scalar RoutingScenario.node[2].wlan[0].mac.dcf packetDropRetryLimitReached:count 0
attr interpolationmode none
attr source packetDropReasonIsRetryLimitReached(packetDropped)
attr title "packet drops: retry limit reached, count"
scalar RoutingScenario.node[2].wlan[0].mac.dcf packetDropRetryLimitReached:sum(packetBytes) 0
attr interpolationmode none
attr source packetDropReasonIsRetryLimitReached(packetDropped)
attr title "packet drops: retry limit reached, sum(packetBytes)"
scalar RoutingScenario.node[2].wlan[0].mac.dcf linkBroken:count 0
attr interpolationmode none
attr title "link breaks, count"
scalar RoutingScenario.node[2].wlan[0].mac packetReceivedFromLower:count 2
attr interpolationmode none
attr title "packets received from lower layer, count"
scalar RoutingScenario.node[2].wlan[0].mac packetReceivedFromLower:sum(packetBytes) 164
attr interpolationmode none
attr title "packets received from lower layer, sum(packetBytes)"
scalar RoutingScenario.node[2].wlan[0].mac packetSentToLower:count 3
attr interpolationmode none
attr title "packets sent to lower layer, count"
scalar RoutingScenario.node[2].wlan[0].mac packetSentToLower:sum(packetBytes) 246
attr interpolationmode none
attr title "packets sent to lower layer, sum(packetBytes)"
scalar RoutingScenario.node[2].wlan[0].mac packetReceivedFromUpper:count 3
attr interpolationmode none
attr title "packets received from upper layer, count"
scalar RoutingScenario.node[2].wlan[0].mac packetReceivedFromUpper:sum(packetBytes) 162
attr interpolationmode none
attr title "packets received from upper layer, sum(packetBytes)"
[...]
attr title "packets received: multicast, sum(packetBytes)"
scalar RoutingScenario.node[23].wlan[0].mac.dcf packetReceivedFromPeerBroadcast:count 3
attr interpolationmode none
attr source ieee80211Broadcast(packetReceivedFromPeer)
attr title "packets received: broadcast, count"
scalar RoutingScenario.node[23].wlan[0].mac.dcf packetReceivedFromPeerBroadcast:sum(packetBytes) 222
attr interpolationmode none
attr source ieee80211Broadcast(packetReceivedFromPeer)
attr title "packets received: broadcast, sum(packetBytes)"
scalar RoutingScenario.node[23].wlan[0].mac.dcf packetReceivedFromPeerWithRetry:count 0
attr interpolationmode none
attr source ieee80211Retry(packetReceivedFromPeer)
attr title "packets received: with retry, count"
scalar RoutingScenario.node[23].wlan[0].mac.dcf packetReceivedFromPeerWithRetry:sum(packetBytes) 0
attr interpolationmode none
attr source ieee80211Retry(packetReceivedFromPeer)
attr title "packets received: with retry, sum(packetBytes)"
scalar RoutingScenario.node[23].wlan[0].mac.dcf packetReceivedFromPeerWithoutRetry:count 55
attr interpolationmode none
attr source ieee80211NotRetry(packetReceivedFromPeer)
attr title "packets received: without retry, count"
scalar RoutingScenario.node[23].wlan[0].mac.dcf packetReceivedFromPeerWithoutRetry:sum(packetBytes) 1014
attr interpolationmode none
attr source ieee80211NotRetry(packetReceivedFromPeer)
attr title "packets received: without retry, sum(packetBytes)"
scalar RoutingScenario.node[23].wlan[0].mac.dcf packetSentToPeer:count 53
attr interpolationmode none
attr title "packets sent, count"
scalar RoutingScenario.node[23].wlan[0].mac.dcf packetSentToPeer:sum(packetBytes) 53054
attr interpolationmode none
attr title "packets sent, sum(packetBytes)"
scalar RoutingScenario.node[23].wlan[0].mac.dcf packetSentToPeerUnicast:count 52
attr interpolationmode none
attr source ieee80211Unicast(packetSentToPeer)
attr title "packets sent: unicast, count"
scalar RoutingScenario.node[23].wlan[0].mac.dcf packetSentToPeerUnicast:sum(packetBytes) 52972
attr interpolationmode none
attr source ieee80211Unicast(packetSentToPeer)
attr title "packets sent: unicast, sum(packetBytes)"
scalar RoutingScenario.node[23].wlan[0].mac.dcf packetSentToPeerMulticast:count 1
attr interpolationmode none
attr source ieee80211Multicast(packetSentToPeer)
attr title "packets sent: multicast, count"
scalar RoutingScenario.node[23].wlan[0].mac.dcf packetSentToPeerMulticast:sum(packetBytes) 82
attr interpolationmode none
attr source ieee80211Multicast(packetSentToPeer)
attr title "packets sent: multicast, sum(packetBytes)"
scalar RoutingScenario.node[23].wlan[0].mac.dcf packetSentToPeerBroadcast:count 1
attr interpolationmode none
attr source ieee80211Broadcast(packetSentToPeer)
attr title "packets sent: broadcast , count"
scalar RoutingScenario.node[23].wlan[0].mac.dcf packetSentToPeerBroadcast:sum(packetBytes) 82
attr interpolationmode none
attr source ieee80211Broadcast(packetSentToPeer)
attr title "packets sent: broadcast , sum(packetBytes)"
scalar RoutingScenario.node[23].wlan[0].mac.dcf packetSentToPeerWithRetry:count 0
attr interpolationmode none
attr source ieee80211Retry(packetSentToPeer)
attr title "packets sent: with retry, count"
scalar RoutingScenario.node[23].wlan[0].mac.dcf packetSentToPeerWithRetry:sum(packetBytes) 0
attr interpolationmode none
attr source ieee80211Retry(packetSentToPeer)
attr title "packets sent: with retry, sum(packetBytes)"
scalar RoutingScenario.node[23].wlan[0].mac.dcf packetSentToPeerWithoutRetry:count 53
attr interpolationmode none
attr source ieee80211NotRetry(packetSentToPeer)
attr title "packets sent: without retry, count"
scalar RoutingScenario.node[23].wlan[0].mac.dcf packetSentToPeerWithoutRetry:sum(packetBytes) 53054
attr interpolationmode none
attr source ieee80211NotRetry(packetSentToPeer)
attr title "packets sent: without retry, sum(packetBytes)"
scalar RoutingScenario.node[23].wlan[0].mac.dcf packetDrop:count 0
attr interpolationmode none
attr source packetDropped
attr title "packet drops, count"
scalar RoutingScenario.node[23].wlan[0].mac.dcf packetDrop:sum(packetBytes) 0
attr interpolationmode none
attr source packetDropped
attr title "packet drops, sum(packetBytes)"
scalar RoutingScenario.node[23].wlan[0].mac.dcf packetDropNotAddressedToUs:count 0
attr interpolationmode none
attr source packetDropReasonIsNotAddressedToUs(packetDropped)
attr title "packet drops: not addressed to us, count"
scalar RoutingScenario.node[23].wlan[0].mac.dcf packetDropNotAddressedToUs:sum(packetBytes) 0
attr interpolationmode none
attr source packetDropReasonIsNotAddressedToUs(packetDropped)
attr title "packet drops: not addressed to us, sum(packetBytes)"
scalar RoutingScenario.node[23].wlan[0].mac.dcf packetDropQueueOverflow:count 0
attr interpolationmode none
attr source packetDropReasonIsQueueOverflow(packetDropped)
attr title "packet drops: queue overflow, count"
scalar RoutingScenario.node[23].wlan[0].mac.dcf packetDropQueueOverflow:sum(packetBytes) 0
attr interpolationmode none
attr source packetDropReasonIsQueueOverflow(packetDropped)
attr title "packet drops: queue overflow, sum(packetBytes)"
scalar RoutingScenario.node[23].wlan[0].mac.dcf packetDropRetryLimitReached:count 0
attr interpolationmode none
attr source packetDropReasonIsRetryLimitReached(packetDropped)
attr title "packet drops: retry limit reached, count"
scalar RoutingScenario.node[23].wlan[0].mac.dcf packetDropRetryLimitReached:sum(packetBytes) 0
attr interpolationmode none
attr source packetDropReasonIsRetryLimitReached(packetDropped)
attr title "packet drops: retry limit reached, sum(packetBytes)"
scalar RoutingScenario.node[23].wlan[0].mac.dcf linkBroken:count 0
attr interpolationmode none
attr title "link breaks, count"
scalar RoutingScenario.node[23].wlan[0].mac packetReceivedFromLower:count 55
attr interpolationmode none
attr title "packets received from lower layer, count"
scalar RoutingScenario.node[23].wlan[0].mac packetReceivedFromLower:sum(packetBytes) 1014
attr interpolationmode none
attr title "packets received from lower layer, sum(packetBytes)"
scalar RoutingScenario.node[23].wlan[0].mac packetSentToLower:count 53
attr interpolationmode none
attr title "packets sent to lower layer, count"
scalar RoutingScenario.node[23].wlan[0].mac packetSentToLower:sum(packetBytes) 53054
attr interpolationmode none
attr title "packets sent to lower layer, sum(packetBytes)"
scalar RoutingScenario.node[23].wlan[0].mac packetReceivedFromUpper:count 52
attr interpolationmode none
attr title "packets received from upper layer, count"
scalar RoutingScenario.node[23].wlan[0].mac packetReceivedFromUpper:sum(packetBytes) 51584
attr interpolationmode none
attr title "packets received from upper layer, sum(packetBytes)"
scalar RoutingScenario.node[23].wlan[0].mac packetSentToUpper:count 4
attr interpolationmode none
attr title "packets sent to upper layer, count"
scalar RoutingScenario.node[23].wlan[0].mac packetSentToUpper:sum(packetBytes) 188
attr interpolationmode none
attr title "packets sent to upper layer, sum(packetBytes)"
scalar RoutingScenario.node[23].wlan[0].mac packetDrop:count 0
attr interpolationmode none
attr source packetDropped
attr title "packet drops, count"
scalar RoutingScenario.node[23].wlan[0].mac packetDrop:sum(packetBytes) 0
attr interpolationmode none
attr source packetDropped
attr title "packet drops, sum(packetBytes)"
scalar RoutingScenario.node[23].wlan[0].mac packetDropIncorrectlyReceived:count 0
attr interpolationmode none
attr source packetDropReasonIsIncorrectlyReceived(packetDropped)
attr title "packet drops: incorrectly received, count"
scalar RoutingScenario.node[23].wlan[0].mac packetDropIncorrectlyReceived:sum(packetBytes) 0
attr interpolationmode none
attr source packetDropReasonIsIncorrectlyReceived(packetDropped)
attr title "packet drops: incorrectly received, sum(packetBytes)"
scalar RoutingScenario.node[23].wlan[0].mac packetDropNotAddressedToUs:count 0
attr interpolationmode none
attr source packetDropReasonIsNotAddressedToUs(packetDropped)
attr title "packet drops: not addressed to us, count"
scalar RoutingScenario.node[23].wlan[0].mac packetDropNotAddressedToUs:sum(packetBytes) 0
attr interpolationmode none
attr source packetDropReasonIsNotAddressedToUs(packetDropped)
attr title "packet drops: not addressed to us, sum(packetBytes)"
scalar RoutingScenario.node[23].wlan[0].mac packetDropQueueOverflow:count 0
attr interpolationmode none
attr source packetDropReasonIsQueueOverflow(packetDropped)
attr title "packet drops: queue overflow, count"
scalar RoutingScenario.node[23].wlan[0].mac packetDropQueueOverflow:sum(packetBytes) 0
attr interpolationmode none
attr source packetDropReasonIsQueueOverflow(packetDropped)
attr title "packet drops: queue overflow, sum(packetBytes)"
scalar RoutingScenario.node[23].wlan[0].mac packetDropRetryLimitReached:count 0
attr interpolationmode none
attr source packetDropReasonIsRetryLimitReached(packetDropped)
attr title "packet drops: retry limit reached, count"
scalar RoutingScenario.node[23].wlan[0].mac packetDropRetryLimitReached:sum(packetBytes) 0
attr interpolationmode none
attr source packetDropReasonIsRetryLimitReached(packetDropped)
attr title "packet drops: retry limit reached, sum(packetBytes)"
scalar RoutingScenario.node[23].wlan[0].mac packetDropDuplicateDetected:count 0
attr interpolationmode none
attr source packetDropReasonIsDuplicateDetected(packetDropped)
attr title "packet drops: duplicate detected, count"
scalar RoutingScenario.node[23].wlan[0].mac packetDropDuplicateDetected:sum(packetBytes) 0
attr interpolationmode none
attr source packetDropReasonIsDuplicateDetected(packetDropped)
attr title "packet drops: duplicate detected, sum(packetBytes)"
scalar RoutingScenario.node[23].wlan[0].mac packetDropOther:count 0
attr interpolationmode none
attr source packetDropReasonIsOther(packetDropped)
attr title "packet drops: other, count"
scalar RoutingScenario.node[23].wlan[0].mac packetDropOther:sum(packetBytes) 0
attr interpolationmode none
attr source packetDropReasonIsOther(packetDropped)
attr title "packet drops: other, sum(packetBytes)"
scalar RoutingScenario.node[23].wlan[0].mac linkBroken:count 0
attr interpolationmode none
attr title "link breaks, count"
statistic RoutingScenario.node[23].wlan[0].radio radioChannel:histogram
field count 1
field mean 3
field stddev -nan
field min 3
field max 3
field sum 3
field sqrsum 9
attr interpolationmode sample-hold
attr source radioChannelChanged
attr title "Radio channel, histogram"
bin	-inf	0
bin	2	0
bin	3	1
bin	4	0
scalar RoutingScenario.node[23].wlan[0].radio radioMode:count 109
attr interpolationmode sample-hold
attr source radioModeChanged
attr title "Radio mode, count"
scalar RoutingScenario.node[23].wlan[0].radio receptionState:count 217
attr interpolationmode sample-hold
attr source receptionStateChanged
attr title "Radio reception state, count"
scalar RoutingScenario.node[23].wlan[0].radio transmissionState:count 212
attr interpolationmode sample-hold
attr source transmissionStateChanged
attr title "Radio transmission state, count"
statistic RoutingScenario.node[23].wlan[0].radio minSnir:histogram
field count 55
field mean 45103.829289184
field stddev 69484.667354886
field min 522.16279930376
field max 162886.85635326
field sum 2480710.6109051
field sqrsum 372607973770.76
attr source minimumSnir(packetSentToUpper)
attr title "Min SNIR, histogram"
bin	-inf	0
bin	0	7
bin	2000	32
bin	4000	1
bin	6000	0
bin	8000	0
bin	10000	0
bin	12000	0
bin	14000	0
bin	16000	0
bin	18000	0
bin	20000	0
bin	22000	0
bin	24000	0
bin	26000	0
bin	28000	0
bin	30000	0
bin	32000	0
bin	34000	0
bin	36000	0
bin	38000	0
bin	40000	0
bin	42000	0
bin	44000	0
bin	46000	0
bin	48000	0
bin	50000	0
bin	52000	0
bin	54000	0
bin	56000	0
bin	58000	0
bin	60000	0
bin	62000	0
bin	64000	0
bin	66000	0
bin	68000	0
bin	70000	0
bin	72000	0
bin	74000	0
bin	76000	0
bin	78000	0
bin	80000	0
bin	82000	0
bin	84000	0
bin	86000	0
bin	88000	0
bin	90000	0
bin	92000	0
bin	94000	0
bin	96000	0
bin	98000	0
bin	100000	0
bin	102000	0
bin	104000	0
bin	106000	0
bin	108000	0
bin	110000	0
bin	112000	0
bin	114000	0
bin	116000	0
bin	118000	0
bin	120000	0
bin	122000	0
bin	124000	0
bin	126000	0
bin	128000	0
bin	130000	0
bin	132000	0
bin	134000	0
bin	136000	0
bin	138000	0
bin	140000	0
bin	142000	0
bin	144000	0
bin	146000	0
bin	148000	0
bin	150000	3
bin	152000	0
bin	154000	1
bin	156000	4
bin	158000	3
bin	160000	0
bin	162000	4
bin	164000	0
bin	166000	0
bin	168000	0
bin	170000	0
bin	172000	0
bin	174000	0
bin	176000	0
bin	178000	0
bin	180000	0
bin	182000	0
bin	184000	0
bin	186000	0
bin	188000	0
bin	190000	0
bin	192000	0
bin	194000	0
bin	196000	0
bin	198000	0
bin	200000	0
bin	202000	0
bin	204000	0
statistic RoutingScenario.node[23].wlan[0].radio packetErrorRate:histogram
field count 55
field mean 0
field stddev 0
field min 0
field max 0
field sum 0
field sqrsum 0
attr source packetErrorRate(packetSentToUpper)
attr title "Packet error rate, histogram"
bin	-inf	0
bin	-0.5	0
bin	-0.48	0
bin	-0.46	0
bin	-0.44	0
bin	-0.42	0
bin	-0.4	0
bin	-0.38	0
bin	-0.36	0
bin	-0.34	0
bin	-0.32	0
bin	-0.3	0
bin	-0.28	0
bin	-0.26	0
bin	-0.24	0
bin	-0.22	0
bin	-0.2	0
bin	-0.18	0
bin	-0.16	0
bin	-0.14	0
bin	-0.12	0
bin	-0.1	0
bin	-0.08	0
bin	-0.06	0
bin	-0.04	0
bin	-0.02	0
bin	0	55
bin	0.02	0
bin	0.04	0
bin	0.06	0
bin	0.08	0
bin	0.1	0
bin	0.12	0
bin	0.14	0
bin	0.16	0
bin	0.18	0
bin	0.2	0
bin	0.22	0
bin	0.24	0
bin	0.26	0
bin	0.28	0
bin	0.3	0
bin	0.32	0
bin	0.34	0
bin	0.36	0
bin	0.38	0
bin	0.4	0
bin	0.42	0
bin	0.44	0
bin	0.46	0
bin	0.48	0
bin	0.5	0
statistic RoutingScenario.node[23].wlan[0].radio bitErrorRate:histogram
field count 0
field mean -nan
field stddev nan
field min nan
field max nan
field sum 0
field sqrsum 0
attr source bitErrorRate(packetSentToUpper)
attr title "Bit error rate, histogram"
bin	-inf	0
bin	0	0
bin	1	0
statistic RoutingScenario.node[23].wlan[0].radio symbolErrorRate:histogram
field count 0
field mean -nan
field stddev nan
field min nan
field max nan
field sum 0
field sqrsum 0
attr source symbolErrorRate(packetSentToUpper)
attr title "Symbol error rate, histogram"
bin	-inf	0
bin	0	0
bin	1	0
scalar RoutingScenario.node[23].ipv4.ip packetDropAddressResolutionFailed:count 0
attr interpolationmode none
attr source packetDropReasonIsAddressResolutionFailed(packetDropped)
attr title "packet drop: address resolution failed, count"
scalar RoutingScenario.node[23].ipv4.ip packetDropAddressResolutionFailed:sum(packetBytes) 0
attr interpolationmode none
attr source packetDropReasonIsAddressResolutionFailed(packetDropped)
attr title "packet drop: address resolution failed, sum(packetBytes)"
scalar RoutingScenario.node[23].ipv4.ip packetDropHopLimitReached:count 0
attr interpolationmode none
attr source packetDropReasonIsHopLimitReached(packetDropped)
attr title "packet drop: hop limit reached, count"
scalar RoutingScenario.node[23].ipv4.ip packetDropHopLimitReached:sum(packetBytes) 0
attr interpolationmode none
attr source packetDropReasonIsHopLimitReached(packetDropped)
attr title "packet drop: hop limit reached, sum(packetBytes)"
scalar RoutingScenario.node[23].ipv4.ip packetDropForwardingDisabled:count 0
attr interpolationmode none
attr source packetDropReasonIsForwardingDisabled(packetDropped)
attr title "packet drop: forwarding disabled, count"
scalar RoutingScenario.node[23].ipv4.ip packetDropForwardingDisabled:sum(packetBytes) 0
attr interpolationmode none
attr source packetDropReasonIsForwardingDisabled(packetDropped)
attr title "packet drop: forwarding disabled, sum(packetBytes)"
scalar RoutingScenario.node[23].ipv4.ip packetDropNoInterfaceFound:count 0
attr interpolationmode none
attr source packetDropReasonIsNoInterfaceFound(packetDropped)
attr title "packet drop: no interface found, count"
scalar RoutingScenario.node[23].ipv4.ip packetDropNoInterfaceFound:sum(packetBytes) 0
attr interpolationmode none
attr source packetDropReasonIsNoInterfaceFound(packetDropped)
attr title "packet drop: no interface found, sum(packetBytes)"
scalar RoutingScenario.node[23].ipv4.ip packetDropNoRouteFound:count 0
attr interpolationmode none
attr source packetDropReasonIsNoRouteFound(packetDropped)
attr title "packet drop: no route found, count"
scalar RoutingScenario.node[23].ipv4.ip packetDropNoRouteFound:sum(packetBytes) 0
attr interpolationmode none
attr source packetDropReasonIsNoRouteFound(packetDropped)
attr title "packet drop: no route found, sum(packetBytes)"
scalar RoutingScenario.node[23].ipv4.ip packetDropUndefined:count 0
attr interpolationmode none
attr source packetDropReasonIsUndefined(packetDropped)
attr title "packet drop: undefined, count"
scalar RoutingScenario.node[23].ipv4.ip packetDropUndefined:sum(packetBytes) 0
attr interpolationmode none
attr source packetDropReasonIsUndefined(packetDropped)
attr title "packet drop: undefined, sum(packetBytes)"
scalar RoutingScenario.node[23].ipv4.arp arpResolutionFailed:count 0
attr title "ARP failed resolutions, count"
scalar RoutingScenario.node[23].ipv4.arp arpResolutionCompleted:count 1
attr title "ARP completed resolutions, count"
scalar RoutingScenario.node[23].ipv4.arp arpResolutionInitiated:count 0
attr title "ARP initiated resolutions, count"
scalar RoutingScenario.node[23].ipv4.arp arpReplySent:count 1
attr source arpReplySent
attr title "ARP replies sent, count"
scalar RoutingScenario.node[23].ipv4.arp arpReplySent:sum(packetBytes) 28
attr source arpReplySent
attr title "ARP replies sent, sum(packetBytes)"
scalar RoutingScenario.node[23].ipv4.arp arpRequestSent:count 0
attr source arpRequestSent
attr title "ARP request sent, count"
scalar RoutingScenario.node[23].ipv4.arp arpRequestSent:sum(packetBytes) 0
attr source arpRequestSent
attr title "ARP request sent, sum(packetBytes)"
scalar RoutingScenario.node[23].udp packetReceived:count 3
attr interpolationmode none
attr source packetReceived
attr title "packets received, count"
scalar RoutingScenario.node[23].udp packetReceived:sum(packetBytes) 92
attr interpolationmode none
attr source packetReceived
attr title "packets received, sum(packetBytes)"
scalar RoutingScenario.node[23].udp packetSent:count 51
attr interpolationmode none
attr source packetSent
attr title "packets sent, count"
scalar RoutingScenario.node[23].udp packetSent:sum(packetBytes) 50432
attr interpolationmode none
attr source packetSent
attr title "packets sent, sum(packetBytes)"
scalar RoutingScenario.node[23].udp passedUpPk:count 3
attr interpolationmode none
attr source packetSentToUpper
attr title "packets passed up, count"
scalar RoutingScenario.node[23].udp droppedPkWrongPort:count 0
attr interpolationmode none
attr source packetDropReasonIsNoPortFound(packetDropped)
attr title "packets dropped (wrong port), count"
scalar RoutingScenario.node[23].udp droppedPkBadChecksum:count 0
attr interpolationmode none
attr source packetDropReasonIsIncorrectlyReceived(packetDropped)
attr title "packets dropped (checksum error), count"
scalar RoutingScenario.node[23].app[0] "packets sent" 50
scalar RoutingScenario.node[23].app[0] "packets received" 0
scalar RoutingScenario.node[23].app[0] packetReceived:count 0
attr interpolationmode none
attr source packetReceived
attr title "packets received, count"
scalar RoutingScenario.node[23].app[0] packetReceived:sum(packetBytes) 0
attr interpolationmode none
attr source packetReceived
attr title "packets received, sum(packetBytes)"
statistic RoutingScenario.node[23].app[0] rcvdPkLifetime:stats
field count 0
field mean -nan
field stddev nan
field min nan
field max nan
field sum 0
field sqrsum 0
attr interpolationmode none
attr source dataAge(packetReceived)
attr title "received packet lifetime, stats"
attr unit s
scalar RoutingScenario.node[23].app[0] packetSent:count 50
attr interpolationmode none
attr source packetSent
attr title "packets sent, count"
scalar RoutingScenario.node[23].app[0] packetSent:sum(packetBytes) 50000
attr interpolationmode none
attr source packetSent
attr title "packets sent, sum(packetBytes)"

