version 2
run canvas-0-20220714-08:25:02-2943
attr configname canvas
attr datetime 20220714-08:25:02
attr experiment canvas
attr inifile omnetpp.ini
attr iterationvars ""
attr iterationvarsf ""
attr measurement ""
attr network RoutingScenario
attr processid 2943
attr repetition 0
attr replication #0
attr resultdir results
attr runnumber 0
attr seedset 0
param *.visualizer.*.obstacleLossVisualizer.displayIntersections true
param *.visualizer.*.obstacleLossVisualizer.displayFaceNormalVectors true
param *.visualizer.*.obstacleLossVisualizer.intersectionLineColor "\"yellow\""
param *.visualizer.*.mediumVisualizer.signalPropagationAnimationSpeed 500/3e8
param *.visualizer.*.mediumVisualizer.signalTransmissionAnimationSpeed 50000/3e8
param *.visualizer.*.mediumVisualizer.displaySignals true
param *.visualizer.canvasVisualizer.mediumVisualizer.displaySignalDepartures false
param *.visualizer.canvasVisualizer.mediumVisualizer.displaySignalArrivals false
param *.visualizer.*.physicalLinkVisualizer.displayLinks true
param *.visualizer.*.mobilityVisualizer.displayPositions true
param *.visualizer.*.mobilityVisualizer.displayOrientations true
param *.visualizer.*.mobilityVisualizer.displayVelocities true
param *.visualizer.*.mobilityVisualizer.displayMovementTrails true
param *.visualizer.*.mobilityVisualizer.moduleFilter "\"**.antenna.mobility\""
param *.node[3].router "\"Fabrication\""
param *.node[7].router "\"Fabrication\""
param *.node[5].router "\"Fabrication\""
param *.node[*].router "\"AodvBase\""
param *.node[*].numApps 1
param *.node[*].app[0].typename "\"UdpBasicApp\""
param *.node[*].app[0].destAddresses "\"node[*]\""
param *.node[*].app[0].destPort 5000
param *.node[*].app[0].messageLength 1000B
param *.node[*].app[0].sendInterval exponential(12ms)
param *.node[*].app[0].packetName "\"UDPData\""
param *.node[*].wlan[0].opMode "\"p\""
param *.node[*].wlan[0].radio.bandName "\"5.9 GHz\""
param *.node[*].wlan[0].radio.channelNumber 3
param *.node[*].wlan[0].radio.transmitter.power 20mW
param *.node[*].wlan[0].radio.bandwidth "10 MHz"
param *.node[*].ipv4.configurator.typename "\"HostAutoConfigurator\""
param *.node[*].ipv4.configurator.interfaces "\"wlan0\""
param *.node[*].ipv4.configurator.mcastGroups "\"224.0.0.1\""
param *.node[*].mobility.typename "\"VeinsInetMobility\""
param *.node[*].mobility.speed 20mps
param *.manager.updateInterval 0.1s
param *.manager.host "\"localhost\""
param *.manager.port 9999
param *.manager.autoShutdown true
param *.manager.launchConfig "xmldoc(\"bari.launchd.xml\")"
param *.manager.moduleType "\"vanetnetsec.veins_inet.VeinsInetRoutingCar\""
param *.physicalEnvironment.config "xmldoc(\"obstacles.xml\")"
param *.radioMedium.obstacleLoss.typename "\"IdealObstacleLoss\""

scalar RoutingScenario.radioMedium.propagation "Arrival computation count" 37981
scalar RoutingScenario.radioMedium "transmission count" 1717
scalar RoutingScenario.radioMedium "signal send count" 37865
scalar RoutingScenario.radioMedium "reception computation count" 37865
scalar RoutingScenario.radioMedium "interference computation count" 107159
scalar RoutingScenario.radioMedium "reception decision computation count" 6604
scalar RoutingScenario.radioMedium "listening decision computation count" 63505
scalar RoutingScenario.radioMedium "reception cache hit" 82.265799900709
attr unit %
scalar RoutingScenario.radioMedium "interference cache hit" 66.666666666667
attr unit %
scalar RoutingScenario.radioMedium "noise cache hit" 0
attr unit %
scalar RoutingScenario.radioMedium "snir cache hit" 50
attr unit %
scalar RoutingScenario.radioMedium "reception decision cache hit" 50
attr unit %
scalar RoutingScenario.radioMedium "reception result cache hit" 0
attr unit %
scalar RoutingScenario.manager roiArea 0
scalar RoutingScenario.node[0].lo[0].lo rcvdPkFromHl:count 64
attr interpolationmode none
attr source packetReceivedFromUpper
attr title "packets received from higher layer, count"
scalar RoutingScenario.node[0].lo[0].lo rcvdPkFromHl:sum(packetBytes) 65792
attr interpolationmode none
attr source packetReceivedFromUpper
attr title "packets received from higher layer, sum(packetBytes)"
scalar RoutingScenario.node[0].lo[0].lo passedUpPk:count 64
attr interpolationmode none
attr source packetSentToUpper
attr title "packets passed to higher layer, count"
scalar RoutingScenario.node[0].lo[0].lo passedUpPk:sum(packetBytes) 65792
attr interpolationmode none
attr source packetSentToUpper
attr title "packets passed to higher layer, sum(packetBytes)"
scalar RoutingScenario.node[0].wlan[0].mac.dcf.channelAccess.pendingQueue packetPopped:count 93
attr interpolationmode none
attr title "packet popped, count"
scalar RoutingScenario.node[0].wlan[0].mac.dcf.channelAccess.pendingQueue packetPopped:sum(packetBytes) 7870
attr interpolationmode none
attr title "packet popped, sum(packetBytes)"
statistic RoutingScenario.node[0].wlan[0].mac.dcf.channelAccess.pendingQueue queueingTime:histogram
field count 93
field mean 0.0033834819655591
field stddev 0.0085488228627306
field min 0
field max 0.037835523787
field sum 0.314663822797
field sqrsum 0.0077882376247754
attr interpolationmode none
attr source queueingTime(packetPopped)
attr title "queueing times, histogram"
attr unit s
bin	-inf	0
bin	0	68
bin	0.001	7
bin	0.002	4
bin	0.003	1
bin	0.004	1
bin	0.005	1
bin	0.006	0
bin	0.007	1
bin	0.008	1
bin	0.009	0
bin	0.01	0
bin	0.011	0
bin	0.012	1
bin	0.013	0
bin	0.014	0
bin	0.015	0
bin	0.016	0
bin	0.017	0
bin	0.018	1
bin	0.019	1
bin	0.02	0
bin	0.021	0
bin	0.022	0
bin	0.023	0
bin	0.024	0
bin	0.025	1
bin	0.026	0
bin	0.027	0
bin	0.028	0
bin	0.029	0
bin	0.03	2
bin	0.031	0
bin	0.032	0
bin	0.033	0
bin	0.034	0
bin	0.035	0
bin	0.036	1
bin	0.037	2
bin	0.038	0
bin	0.039	0
bin	0.04	0
bin	0.041	0
bin	0.042	0
bin	0.043	0
bin	0.044	0
bin	0.045	0
bin	0.046	0
bin	0.047	0
bin	0.048	0
scalar RoutingScenario.node[0].wlan[0].mac.dcf.channelAccess.pendingQueue queueLength:max 11
attr interpolationmode sample-hold
attr source "count(packetPushed) - count(packetPopped) - count(packetRemoved) - count(packetDropped)"
attr title "queue length, max"
scalar RoutingScenario.node[0].wlan[0].mac.dcf.channelAccess.pendingQueue queueLength:timeavg 0.35274025143884
attr interpolationmode sample-hold
attr source "count(packetPushed) - count(packetPopped) - count(packetRemoved) - count(packetDropped)"
attr title "queue length, timeavg"
scalar RoutingScenario.node[0].wlan[0].mac.dcf.channelAccess.pendingQueue packetPushed:count 93
attr interpolationmode none
attr title "packet pushed, count"
scalar RoutingScenario.node[0].wlan[0].mac.dcf.channelAccess.pendingQueue packetPushed:sum(packetBytes) 7870
attr interpolationmode none
attr title "packet pushed, sum(packetBytes)"
scalar RoutingScenario.node[0].wlan[0].mac.dcf.channelAccess.pendingQueue packetDropQueueOverflow:count 0
attr interpolationmode none
attr source packetDropReasonIsQueueOverflow(packetDropped)
attr title "packet drops: queue overflow, count"
scalar RoutingScenario.node[0].wlan[0].mac.dcf.channelAccess.pendingQueue packetDropQueueOverflow:sum(packetBytes) 0
attr interpolationmode none
attr source packetDropReasonIsQueueOverflow(packetDropped)
attr title "packet drops: queue overflow, sum(packetBytes)"
scalar RoutingScenario.node[0].wlan[0].mac.dcf.channelAccess.pendingQueue packetRemoved:count 0
attr interpolationmode none
attr title "packets removed, count"
scalar RoutingScenario.node[0].wlan[0].mac.dcf.channelAccess.pendingQueue packetRemoved:sum(packetBytes) 0
attr interpolationmode none
attr title "packets removed, sum(packetBytes)"
statistic RoutingScenario.node[0].wlan[0].mac.dcf.channelAccess.inProgressFrames queueingTime:histogram
field count 93
field mean 0.0017364460307419
field stddev 0.0060190313487313
field min 8.8e-05
field max 0.041264900039
field sum 0.161489480859
field sqrsum 0.0036134616987292
attr interpolationmode none
attr source queueingTime(packetDequeued)
attr title "queueing times, histogram"
bin	-inf	0
bin	0	83
bin	0.001	2
bin	0.002	0
bin	0.003	0
bin	0.004	0
bin	0.005	0
bin	0.006	1
bin	0.007	2
bin	0.008	1
bin	0.009	0
bin	0.01	0
bin	0.011	0
bin	0.012	1
bin	0.013	0
bin	0.014	0
bin	0.015	0
bin	0.016	0
bin	0.017	0
bin	0.018	0
bin	0.019	1
bin	0.02	0
bin	0.021	0
bin	0.022	0
bin	0.023	0
bin	0.024	0
bin	0.025	0
bin	0.026	0
bin	0.027	0
bin	0.028	0
bin	0.029	0
bin	0.03	0
bin	0.031	0
bin	0.032	0
bin	0.033	1
bin	0.034	0
bin	0.035	0
bin	0.036	0
bin	0.037	0
bin	0.038	0
bin	0.039	0
bin	0.04	0
bin	0.041	1
bin	0.042	0
bin	0.043	0
bin	0.044	0
bin	0.045	0
bin	0.046	0
bin	0.047	0
bin	0.048	0
bin	0.049	0
bin	0.05	0
bin	0.051	0
bin	0.052	0
scalar RoutingScenario.node[0].wlan[0].mac.dcf.channelAccess.inProgressFrames queueLength:max 2
attr interpolationmode sample-hold
attr source "count(packetEnqueued) - count(packetDequeued)"
attr title "queue length, max"
scalar RoutingScenario.node[0].wlan[0].mac.dcf.channelAccess.inProgressFrames queueLength:timeavg 0.1810636706328
attr interpolationmode sample-hold
attr source "count(packetEnqueued) - count(packetDequeued)"
attr title "queue length, timeavg"
scalar RoutingScenario.node[0].wlan[0].mac.dcf.channelAccess.contention channelAccessGranted:count 115
attr title "channel access granted, count"
scalar RoutingScenario.node[0].wlan[0].mac.dcf.channelAccess.contention stateChanged:count 2382
attr interpolationmode none
attr title "contention state changed, count"
scalar RoutingScenario.node[0].wlan[0].mac.dcf.channelAccess channelOwnershipChanged:count 230
attr interpolationmode sample-hold
attr title "channel ownership, count"
scalar RoutingScenario.node[0].wlan[0].mac.dcf.originatorMacDataService packetAggregated:count 0
attr title "packets aggregated, count"
scalar RoutingScenario.node[0].wlan[0].mac.dcf.originatorMacDataService packetFragmented:count 0
attr title "packets fragmented, count"
scalar RoutingScenario.node[0].wlan[0].mac.dcf.recipientMacDataService packetDeaggregated:count 0
attr title "packets deaggregated, count"
scalar RoutingScenario.node[0].wlan[0].mac.dcf.recipientMacDataService packetDefragmented:count 117
attr title "packets defragmented, count"
scalar RoutingScenario.node[0].wlan[0].mac.dcf.recipientMacDataService packetDropDuplicateDetected:count 8
attr interpolationmode none
attr source packetDropReasonIsDuplicateDetected(packetDropped)
attr title "packet drops: duplicate detected, count"
scalar RoutingScenario.node[0].wlan[0].mac.dcf.recipientMacDataService packetDropDuplicateDetected:sum(packetBytes) 8464
attr interpolationmode none
attr source packetDropReasonIsDuplicateDetected(packetDropped)
attr title "packet drops: duplicate detected, sum(packetBytes)"
scalar RoutingScenario.node[0].wlan[0].mac.dcf.recoveryProcedure retryLimitReached:count 2
attr title "retry limit reached, count"
scalar RoutingScenario.node[0].wlan[0].mac.dcf frameSequenceFinished:count 115
attr title "finished frame sequences, count"
statistic RoutingScenario.node[0].wlan[0].mac.dcf frameSequenceDuration:histogram
field count 115
field mean 0.00018591563551304
field stddev 2.5493933170154e-05
field min 8.8e-05
field max 0.000198
field sum 0.021380298084
field sqrsum 4.0490249373924e-06
attr source frameSequenceDuration(frameSequenceFinished)
attr title "frame sequence durations, histogram"
bin	-inf	0
bin	6e-05	0
bin	6.2e-05	0
bin	6.4e-05	0
bin	6.6e-05	0
bin	6.8e-05	0
bin	7e-05	0
bin	7.2e-05	0
bin	7.4e-05	0
bin	7.6e-05	0
bin	7.8e-05	0
bin	8e-05	0
bin	8.2e-05	0
bin	8.4e-05	0
bin	8.6e-05	2
bin	8.8e-05	0
bin	9e-05	0
bin	9.2e-05	0
bin	9.4e-05	1
bin	9.6e-05	0
bin	9.8e-05	0
bin	0.0001	0
bin	0.000102	6
bin	0.000104	0
bin	0.000106	0
bin	0.000108	0
bin	0.00011	0
bin	0.000112	0
bin	0.000114	0
bin	0.000116	0
bin	0.000118	0
bin	0.00012	0
bin	0.000122	0
bin	0.000124	0
bin	0.000126	0
bin	0.000128	0
bin	0.00013	0
bin	0.000132	0
bin	0.000134	0
bin	0.000136	0
bin	0.000138	0
bin	0.00014	0
bin	0.000142	0
bin	0.000144	0
bin	0.000146	0
bin	0.000148	0
bin	0.00015	0
bin	0.000152	0
bin	0.000154	0
bin	0.000156	0
bin	0.000158	0
bin	0.00016	0
bin	0.000162	0
bin	0.000164	0
bin	0.000166	0
bin	0.000168	0
bin	0.00017	0
bin	0.000172	0
bin	0.000174	0
bin	0.000176	0
bin	0.000178	1
bin	0.00018	0
bin	0.000182	0
bin	0.000184	1
bin	0.000186	1
bin	0.000188	6
bin	0.00019	0
bin	0.000192	64
bin	0.000194	15
bin	0.000196	18
bin	0.000198	0
bin	0.0002	0
bin	0.000202	0
bin	0.000204	0
bin	0.000206	0
bin	0.000208	0
bin	0.00021	0
bin	0.000212	0
bin	0.000214	0
bin	0.000216	0
bin	0.000218	0
bin	0.00022	0
bin	0.000222	0
bin	0.000224	0
bin	0.000226	0
statistic RoutingScenario.node[0].wlan[0].mac.dcf frameSequenceNumPackets:histogram
field count 115
field mean 1.9217391304348
field stddev 0.26975707352827
field min 1
field max 2
field sum 221
field sqrsum 433
attr source frameSequenceNumPackets(frameSequenceFinished)
attr title "frame sequences: number of packets, histogram"
bin	-inf	0
bin	0	0
bin	1	9
bin	2	106
bin	3	0
scalar RoutingScenario.node[0].wlan[0].mac.dcf packetReceivedFromPeer:count 207
attr interpolationmode none
attr title "packets received, count"
scalar RoutingScenario.node[0].wlan[0].mac.dcf packetReceivedFromPeer:sum(packetBytes) 124534
attr interpolationmode none
attr title "packets received, sum(packetBytes)"
scalar RoutingScenario.node[0].wlan[0].mac.dcf packetReceivedFromPeerUnicast:count 200
attr interpolationmode none
attr source ieee80211Unicast(packetReceivedFromPeer)
attr title "packets received: unicast, count"
scalar RoutingScenario.node[0].wlan[0].mac.dcf packetReceivedFromPeerUnicast:sum(packetBytes) 124012
attr interpolationmode none
attr source ieee80211Unicast(packetReceivedFromPeer)
attr title "packets received: unicast, sum(packetBytes)"
scalar RoutingScenario.node[0].wlan[0].mac.dcf packetReceivedFromPeerMulticast:count 7
attr interpolationmode none
attr source ieee80211Multicast(packetReceivedFromPeer)
attr title "packets received: multicast, count"
scalar RoutingScenario.node[0].wlan[0].mac.dcf packetReceivedFromPeerMulticast:sum(packetBytes) 522
attr interpolationmode none
attr source ieee80211Multicast(packetReceivedFromPeer)
attr title "packets received: multicast, sum(packetBytes)"
scalar RoutingScenario.node[0].wlan[0].mac.dcf packetReceivedFromPeerBroadcast:count 7
attr interpolationmode none
attr source ieee80211Broadcast(packetReceivedFromPeer)
attr title "packets received: broadcast, count"
scalar RoutingScenario.node[0].wlan[0].mac.dcf packetReceivedFromPeerBroadcast:sum(packetBytes) 522
attr interpolationmode none
attr source ieee80211Broadcast(packetReceivedFromPeer)
attr title "packets received: broadcast, sum(packetBytes)"
scalar RoutingScenario.node[0].wlan[0].mac.dcf packetReceivedFromPeerWithRetry:count 28
attr interpolationmode none
attr source ieee80211Retry(packetReceivedFromPeer)
attr title "packets received: with retry, count"
scalar RoutingScenario.node[0].wlan[0].mac.dcf packetReceivedFromPeerWithRetry:sum(packetBytes) 29624
attr interpolationmode none
attr source ieee80211Retry(packetReceivedFromPeer)
attr title "packets received: with retry, sum(packetBytes)"
scalar RoutingScenario.node[0].wlan[0].mac.dcf packetReceivedFromPeerWithoutRetry:count 179
attr interpolationmode none
attr source ieee80211NotRetry(packetReceivedFromPeer)
attr title "packets received: without retry, count"
scalar RoutingScenario.node[0].wlan[0].mac.dcf packetReceivedFromPeerWithoutRetry:sum(packetBytes) 94910
attr interpolationmode none
attr source ieee80211NotRetry(packetReceivedFromPeer)
attr title "packets received: without retry, sum(packetBytes)"
scalar RoutingScenario.node[0].wlan[0].mac.dcf packetSentToPeer:count 233
attr interpolationmode none
attr title "packets sent, count"
scalar RoutingScenario.node[0].wlan[0].mac.dcf packetSentToPeer:sum(packetBytes) 11366
attr interpolationmode none
attr title "packets sent, sum(packetBytes)"
scalar RoutingScenario.node[0].wlan[0].mac.dcf packetSentToPeerUnicast:count 224
attr interpolationmode none
attr source ieee80211Unicast(packetSentToPeer)
attr title "packets sent: unicast, count"
scalar RoutingScenario.node[0].wlan[0].mac.dcf packetSentToPeerUnicast:sum(packetBytes) 10676
attr interpolationmode none
attr source ieee80211Unicast(packetSentToPeer)
attr title "packets sent: unicast, sum(packetBytes)"
scalar RoutingScenario.node[0].wlan[0].mac.dcf packetSentToPeerMulticast:count 9
attr interpolationmode none
attr source ieee80211Multicast(packetSentToPeer)
attr title "packets sent: multicast, count"
scalar RoutingScenario.node[0].wlan[0].mac.dcf packetSentToPeerMulticast:sum(packetBytes) 690
attr interpolationmode none
attr source ieee80211Multicast(packetSentToPeer)
attr title "packets sent: multicast, sum(packetBytes)"
scalar RoutingScenario.node[0].wlan[0].mac.dcf packetSentToPeerBroadcast:count 9
attr interpolationmode none
attr source ieee80211Broadcast(packetSentToPeer)
attr title "packets sent: broadcast , count"
scalar RoutingScenario.node[0].wlan[0].mac.dcf packetSentToPeerBroadcast:sum(packetBytes) 690
attr interpolationmode none
attr source ieee80211Broadcast(packetSentToPeer)
attr title "packets sent: broadcast , sum(packetBytes)"
scalar RoutingScenario.node[0].wlan[0].mac.dcf packetSentToPeerWithRetry:count 22
attr interpolationmode none
attr source ieee80211Retry(packetSentToPeer)
attr title "packets sent: with retry, count"
scalar RoutingScenario.node[0].wlan[0].mac.dcf packetSentToPeerWithRetry:sum(packetBytes) 1844
attr interpolationmode none
attr source ieee80211Retry(packetSentToPeer)
attr title "packets sent: with retry, sum(packetBytes)"
scalar RoutingScenario.node[0].wlan[0].mac.dcf packetSentToPeerWithoutRetry:count 211
attr interpolationmode none
attr source ieee80211NotRetry(packetSentToPeer)
attr title "packets sent: without retry, count"
scalar RoutingScenario.node[0].wlan[0].mac.dcf packetSentToPeerWithoutRetry:sum(packetBytes) 9522
attr interpolationmode none
attr source ieee80211NotRetry(packetSentToPeer)
attr title "packets sent: without retry, sum(packetBytes)"
scalar RoutingScenario.node[0].wlan[0].mac.dcf packetDrop:count 48
attr interpolationmode none
attr source packetDropped
attr title "packet drops, count"
scalar RoutingScenario.node[0].wlan[0].mac.dcf packetDrop:sum(packetBytes) 9736
attr interpolationmode none
attr source packetDropped
attr title "packet drops, sum(packetBytes)"
scalar RoutingScenario.node[0].wlan[0].mac.dcf packetDropNotAddressedToUs:count 38
attr interpolationmode none
attr source packetDropReasonIsNotAddressedToUs(packetDropped)
attr title "packet drops: not addressed to us, count"
scalar RoutingScenario.node[0].wlan[0].mac.dcf packetDropNotAddressedToUs:sum(packetBytes) 1100
attr interpolationmode none
attr source packetDropReasonIsNotAddressedToUs(packetDropped)
attr title "packet drops: not addressed to us, sum(packetBytes)"
scalar RoutingScenario.node[0].wlan[0].mac.dcf packetDropQueueOverflow:count 0
attr interpolationmode none
attr source packetDropReasonIsQueueOverflow(packetDropped)
attr title "packet drops: queue overflow, count"
scalar RoutingScenario.node[0].wlan[0].mac.dcf packetDropQueueOverflow:sum(packetBytes) 0
attr interpolationmode none
attr source packetDropReasonIsQueueOverflow(packetDropped)
attr title "packet drops: queue overflow, sum(packetBytes)"
scalar RoutingScenario.node[0].wlan[0].mac.dcf packetDropRetryLimitReached:count 2
attr interpolationmode none
attr source packetDropReasonIsRetryLimitReached(packetDropped)
attr title "packet drops: retry limit reached, count"
scalar RoutingScenario.node[0].wlan[0].mac.dcf packetDropRetryLimitReached:sum(packetBytes) 172
attr interpolationmode none
attr source packetDropReasonIsRetryLimitReached(packetDropped)
attr title "packet drops: retry limit reached, sum(packetBytes)"
scalar RoutingScenario.node[0].wlan[0].mac.dcf linkBroken:count 2
attr interpolationmode none
attr title "link breaks, count"
scalar RoutingScenario.node[0].wlan[0].mac packetReceivedFromLower:count 299
attr interpolationmode none
attr title "packets received from lower layer, count"
scalar RoutingScenario.node[0].wlan[0].mac packetReceivedFromLower:sum(packetBytes) 181722
attr interpolationmode none
attr title "packets received from lower layer, sum(packetBytes)"
scalar RoutingScenario.node[0].wlan[0].mac packetSentToLower:count 233
attr interpolationmode none
attr title "packets sent to lower layer, count"
scalar RoutingScenario.node[0].wlan[0].mac packetSentToLower:sum(packetBytes) 11366
attr interpolationmode none
attr title "packets sent to lower layer, sum(packetBytes)"
scalar RoutingScenario.node[0].wlan[0].mac packetReceivedFromUpper:count 93
attr interpolationmode none
attr title "packets received from upper layer, count"
scalar RoutingScenario.node[0].wlan[0].mac packetReceivedFromUpper:sum(packetBytes) 5266
attr interpolationmode none
attr title "packets received from upper layer, sum(packetBytes)"
scalar RoutingScenario.node[0].wlan[0].mac packetSentToUpper:count 117
attr interpolationmode none
attr title "packets sent to upper layer, count"
scalar RoutingScenario.node[0].wlan[0].mac packetSentToUpper:sum(packetBytes) 111646
attr interpolationmode none
attr title "packets sent to upper layer, sum(packetBytes)"
scalar RoutingScenario.node[0].wlan[0].mac packetDrop:count 102
attr interpolationmode none
attr source packetDropped
attr title "packet drops, count"
scalar RoutingScenario.node[0].wlan[0].mac packetDrop:sum(packetBytes) 65824
attr interpolationmode none
attr source packetDropped
attr title "packet drops, sum(packetBytes)"
scalar RoutingScenario.node[0].wlan[0].mac packetDropIncorrectlyReceived:count 54
attr interpolationmode none
attr source packetDropReasonIsIncorrectlyReceived(packetDropped)
attr title "packet drops: incorrectly received, count"
scalar RoutingScenario.node[0].wlan[0].mac packetDropIncorrectlyReceived:sum(packetBytes) 56088
attr interpolationmode none
attr source packetDropReasonIsIncorrectlyReceived(packetDropped)
attr title "packet drops: incorrectly received, sum(packetBytes)"
scalar RoutingScenario.node[0].wlan[0].mac packetDropNotAddressedToUs:count 38
attr interpolationmode none
attr source packetDropReasonIsNotAddressedToUs(packetDropped)
attr title "packet drops: not addressed to us, count"
scalar RoutingScenario.node[0].wlan[0].mac packetDropNotAddressedToUs:sum(packetBytes) 1100
attr interpolationmode none
attr source packetDropReasonIsNotAddressedToUs(packetDropped)
attr title "packet drops: not addressed to us, sum(packetBytes)"
scalar RoutingScenario.node[0].wlan[0].mac packetDropQueueOverflow:count 0
attr interpolationmode none
attr source packetDropReasonIsQueueOverflow(packetDropped)
attr title "packet drops: queue overflow, count"
scalar RoutingScenario.node[0].wlan[0].mac packetDropQueueOverflow:sum(packetBytes) 0
attr interpolationmode none
attr source packetDropReasonIsQueueOverflow(packetDropped)
attr title "packet drops: queue overflow, sum(packetBytes)"
scalar RoutingScenario.node[0].wlan[0].mac packetDropRetryLimitReached:count 2
attr interpolationmode none
attr source packetDropReasonIsRetryLimitReached(packetDropped)
attr title "packet drops: retry limit reached, count"
scalar RoutingScenario.node[0].wlan[0].mac packetDropRetryLimitReached:sum(packetBytes) 172
attr interpolationmode none
attr source packetDropReasonIsRetryLimitReached(packetDropped)
attr title "packet drops: retry limit reached, sum(packetBytes)"
scalar RoutingScenario.node[0].wlan[0].mac packetDropDuplicateDetected:count 8
attr interpolationmode none
attr source packetDropReasonIsDuplicateDetected(packetDropped)
attr title "packet drops: duplicate detected, count"
scalar RoutingScenario.node[0].wlan[0].mac packetDropDuplicateDetected:sum(packetBytes) 8464
attr interpolationmode none
attr source packetDropReasonIsDuplicateDetected(packetDropped)
attr title "packet drops: duplicate detected, sum(packetBytes)"
scalar RoutingScenario.node[0].wlan[0].mac packetDropOther:count 0
attr interpolationmode none
attr source packetDropReasonIsOther(packetDropped)
attr title "packet drops: other, count"
scalar RoutingScenario.node[0].wlan[0].mac packetDropOther:sum(packetBytes) 0
attr interpolationmode none
attr source packetDropReasonIsOther(packetDropped)
attr title "packet drops: other, sum(packetBytes)"
scalar RoutingScenario.node[0].wlan[0].mac linkBroken:count 2
attr interpolationmode none
attr title "link breaks, count"
statistic RoutingScenario.node[0].wlan[0].radio radioChannel:histogram
field count 1
field mean 3
field stddev -nan
field min 3
field max 3
field sum 3
field sqrsum 9
attr interpolationmode sample-hold
attr source radioChannelChanged
attr title "Radio channel, histogram"
bin	-inf	0
bin	2	0
bin	3	1
bin	4	0
scalar RoutingScenario.node[0].wlan[0].radio radioMode:count 469
attr interpolationmode sample-hold
attr source radioModeChanged
attr title "Radio mode, count"
scalar RoutingScenario.node[0].wlan[0].radio receptionState:count 1077
attr interpolationmode sample-hold
attr source receptionStateChanged
attr title "Radio reception state, count"
scalar RoutingScenario.node[0].wlan[0].radio transmissionState:count 932
attr interpolationmode sample-hold
attr source transmissionStateChanged
attr title "Radio transmission state, count"
statistic RoutingScenario.node[0].wlan[0].radio minSnir:histogram
field count 299
field mean 1125.5177490537
field stddev 2093.990416021
field min 0.057157733523285
field max 5818.5241288891
field sum 336529.80696707
field sqrsum 1685439437.8187
attr source minimumSnir(packetSentToUpper)
attr title "Min SNIR, histogram"
bin	-inf	0
bin	0	100
bin	100	16
bin	200	10
bin	300	121
bin	400	2
bin	500	0
bin	600	0
bin	700	0
bin	800	0
bin	900	0
bin	1000	0
bin	1100	0
bin	1200	0
bin	1300	0
bin	1400	0
bin	1500	0
bin	1600	0
bin	1700	0
bin	1800	0
bin	1900	0
bin	2000	0
bin	2100	0
bin	2200	0
bin	2300	0
bin	2400	0
bin	2500	0
bin	2600	0
bin	2700	0
bin	2800	0
bin	2900	0
bin	3000	0
bin	3100	0
bin	3200	0
bin	3300	0
bin	3400	0
bin	3500	0
bin	3600	0
bin	3700	0
bin	3800	0
bin	3900	0
bin	4000	0
bin	4100	0
bin	4200	0
bin	4300	0
bin	4400	0
bin	4500	0
bin	4600	0
bin	4700	0
bin	4800	0
bin	4900	0
bin	5000	0
bin	5100	0
bin	5200	0
bin	5300	0
bin	5400	0
bin	5500	0
bin	5600	0
bin	5700	42
bin	5800	8
bin	5900	0
bin	6000	0
bin	6100	0
bin	6200	0
bin	6300	0
bin	6400	0
bin	6500	0
bin	6600	0
bin	6700	0
bin	6800	0
bin	6900	0
bin	7000	0
bin	7100	0
bin	7200	0
bin	7300	0
statistic RoutingScenario.node[0].wlan[0].radio packetErrorRate:histogram
field count 299
field mean 0.17574150128724
field stddev 0.35017623856665
field min 0
field max 1
field sum 52.546708884884
field sqrsum 45.776410128026
attr source packetErrorRate(packetSentToUpper)
attr title "Packet error rate, histogram"
bin	-inf	0
bin	0	224
bin	0.02	5
bin	0.04	1
bin	0.06	0
bin	0.08	1
bin	0.1	0
bin	0.12	0
bin	0.14	1
bin	0.16	1
bin	0.18	2
bin	0.2	5
bin	0.22	0
bin	0.24	0
bin	0.26	0
bin	0.28	0
bin	0.3	0
bin	0.32	0
bin	0.34	0
bin	0.36	0
bin	0.38	6
bin	0.4	0
bin	0.42	0
bin	0.44	0
bin	0.46	0
bin	0.48	0
bin	0.5	0
bin	0.52	0
bin	0.54	0
bin	0.56	0
bin	0.58	0
bin	0.6	0
bin	0.62	9
bin	0.64	0
bin	0.66	0
bin	0.68	0
bin	0.7	0
bin	0.72	0
bin	0.74	0
bin	0.76	0
bin	0.78	0
bin	0.8	0
bin	0.82	0
bin	0.84	0
bin	0.86	0
bin	0.88	3
bin	0.9	15
bin	0.92	1
bin	0.94	0
bin	0.96	0
bin	0.98	2
bin	1	23
bin	1.02	0
bin	1.04	0
bin	1.06	0
bin	1.08	0
bin	1.1	0
bin	1.12	0
bin	1.14	0
bin	1.16	0
bin	1.18	0
bin	1.2	0
bin	1.22	0
bin	1.24	0
bin	1.26	0
statistic RoutingScenario.node[0].wlan[0].radio bitErrorRate:histogram
field count 0
field mean -nan
field stddev nan
field min nan
field max nan
field sum 0
field sqrsum 0
attr source bitErrorRate(packetSentToUpper)
attr title "Bit error rate, histogram"
bin	-inf	0
bin	0	0
bin	1	0
statistic RoutingScenario.node[0].wlan[0].radio symbolErrorRate:histogram
field count 0
field mean -nan
field stddev nan
field min nan
field max nan
field sum 0
field sqrsum 0
attr source symbolErrorRate(packetSentToUpper)
attr title "Symbol error rate, histogram"
bin	-inf	0
bin	0	0
bin	1	0
scalar RoutingScenario.node[0].ipv4.ip packetDropAddressResolutionFailed:count 0
attr interpolationmode none
attr source packetDropReasonIsAddressResolutionFailed(packetDropped)
attr title "packet drop: address resolution failed, count"
scalar RoutingScenario.node[0].ipv4.ip packetDropAddressResolutionFailed:sum(packetBytes) 0
attr interpolationmode none
attr source packetDropReasonIsAddressResolutionFailed(packetDropped)
attr title "packet drop: address resolution failed, sum(packetBytes)"
scalar RoutingScenario.node[0].ipv4.ip packetDropHopLimitReached:count 0
attr interpolationmode none
attr source packetDropReasonIsHopLimitReached(packetDropped)
attr title "packet drop: hop limit reached, count"
scalar RoutingScenario.node[0].ipv4.ip packetDropHopLimitReached:sum(packetBytes) 0
attr interpolationmode none
attr source packetDropReasonIsHopLimitReached(packetDropped)
attr title "packet drop: hop limit reached, sum(packetBytes)"
scalar RoutingScenario.node[0].ipv4.ip packetDropForwardingDisabled:count 0
attr interpolationmode none
attr source packetDropReasonIsForwardingDisabled(packetDropped)
attr title "packet drop: forwarding disabled, count"
scalar RoutingScenario.node[0].ipv4.ip packetDropForwardingDisabled:sum(packetBytes) 0
attr interpolationmode none
attr source packetDropReasonIsForwardingDisabled(packetDropped)
attr title "packet drop: forwarding disabled, sum(packetBytes)"
scalar RoutingScenario.node[0].ipv4.ip packetDropNoInterfaceFound:count 0
attr interpolationmode none
attr source packetDropReasonIsNoInterfaceFound(packetDropped)
attr title "packet drop: no interface found, count"
scalar RoutingScenario.node[0].ipv4.ip packetDropNoInterfaceFound:sum(packetBytes) 0
attr interpolationmode none
attr source packetDropReasonIsNoInterfaceFound(packetDropped)
attr title "packet drop: no interface found, sum(packetBytes)"
scalar RoutingScenario.node[0].ipv4.ip packetDropNoRouteFound:count 0
attr interpolationmode none
attr source packetDropReasonIsNoRouteFound(packetDropped)
attr title "packet drop: no route found, count"
scalar RoutingScenario.node[0].ipv4.ip packetDropNoRouteFound:sum(packetBytes) 0
attr interpolationmode none
attr source packetDropReasonIsNoRouteFound(packetDropped)
attr title "packet drop: no route found, sum(packetBytes)"
scalar RoutingScenario.node[0].ipv4.ip packetDropUndefined:count 0
attr interpolationmode none
attr source packetDropReasonIsUndefined(packetDropped)
attr title "packet drop: undefined, count"
scalar RoutingScenario.node[0].ipv4.ip packetDropUndefined:sum(packetBytes) 0
attr interpolationmode none
attr source packetDropReasonIsUndefined(packetDropped)
attr title "packet drop: undefined, sum(packetBytes)"
scalar RoutingScenario.node[0].ipv4.arp arpResolutionFailed:count 0
attr title "ARP failed resolutions, count"
scalar RoutingScenario.node[0].ipv4.arp arpResolutionCompleted:count 3
attr title "ARP completed resolutions, count"
scalar RoutingScenario.node[0].ipv4.arp arpResolutionInitiated:count 2
attr title "ARP initiated resolutions, count"
scalar RoutingScenario.node[0].ipv4.arp arpReplySent:count 1
attr source arpReplySent
attr title "ARP replies sent, count"
scalar RoutingScenario.node[0].ipv4.arp arpReplySent:sum(packetBytes) 28
attr source arpReplySent
attr title "ARP replies sent, sum(packetBytes)"
scalar RoutingScenario.node[0].ipv4.arp arpRequestSent:count 2
attr source arpRequestSent
attr title "ARP request sent, count"
scalar RoutingScenario.node[0].ipv4.arp arpRequestSent:sum(packetBytes) 56
attr source arpRequestSent
attr title "ARP request sent, sum(packetBytes)"
scalar RoutingScenario.node[0].udp packetReceived:count 178
attr interpolationmode none
attr source packetReceived
attr title "packets received, count"
scalar RoutingScenario.node[0].udp packetReceived:sum(packetBytes) 173560
attr interpolationmode none
attr source packetReceived
attr title "packets received, sum(packetBytes)"
scalar RoutingScenario.node[0].udp packetSent:count 73
attr interpolationmode none
attr source packetSent
attr title "packets sent, count"
scalar RoutingScenario.node[0].udp packetSent:sum(packetBytes) 64792
attr interpolationmode none
attr source packetSent
attr title "packets sent, sum(packetBytes)"
scalar RoutingScenario.node[0].udp passedUpPk:count 6
attr interpolationmode none
attr source packetSentToUpper
attr title "packets passed up, count"
scalar RoutingScenario.node[0].udp droppedPkWrongPort:count 172
attr interpolationmode none
attr source packetDropReasonIsNoPortFound(packetDropped)
attr title "packets dropped (wrong port), count"
scalar RoutingScenario.node[0].udp droppedPkBadChecksum:count 0
attr interpolationmode none
attr source packetDropReasonIsIncorrectlyReceived(packetDropped)
attr title "packets dropped (checksum error), count"
scalar RoutingScenario.node[0].app[0] "packets sent" 64
scalar RoutingScenario.node[0].app[0] "packets received" 0
scalar RoutingScenario.node[0].app[0] packetReceived:count 0
attr interpolationmode none
attr source packetReceived
attr title "packets received, count"
scalar RoutingScenario.node[0].app[0] packetReceived:sum(packetBytes) 0
attr interpolationmode none
attr source packetReceived
attr title "packets received, sum(packetBytes)"
statistic RoutingScenario.node[0].app[0] rcvdPkLifetime:stats
field count 0
field mean -nan
field stddev nan
field min nan
field max nan
field sum 0
field sqrsum 0
attr interpolationmode none
attr source dataAge(packetReceived)
attr title "received packet lifetime, stats"
attr unit s
scalar RoutingScenario.node[0].app[0] packetSent:count 64
attr interpolationmode none
attr source packetSent
attr title "packets sent, count"
scalar RoutingScenario.node[0].app[0] packetSent:sum(packetBytes) 64000
attr interpolationmode none
attr source packetSent
attr title "packets sent, sum(packetBytes)"
scalar RoutingScenario.node[1].lo[0].lo rcvdPkFromHl:count 0
attr interpolationmode none
attr source packetReceivedFromUpper
attr title "packets received from higher layer, count"
scalar RoutingScenario.node[1].lo[0].lo rcvdPkFromHl:sum(packetBytes) 0
attr interpolationmode none
attr source packetReceivedFromUpper
attr title "packets received from higher layer, sum(packetBytes)"
scalar RoutingScenario.node[1].lo[0].lo passedUpPk:count 0
attr interpolationmode none
attr source packetSentToUpper
attr title "packets passed to higher layer, count"
scalar RoutingScenario.node[1].lo[0].lo passedUpPk:sum(packetBytes) 0
attr interpolationmode none
attr source packetSentToUpper
attr title "packets passed to higher layer, sum(packetBytes)"
scalar RoutingScenario.node[1].wlan[0].mac.dcf.channelAccess.pendingQueue packetPopped:count 36
attr interpolationmode none
attr title "packet popped, count"
scalar RoutingScenario.node[1].wlan[0].mac.dcf.channelAccess.pendingQueue packetPopped:sum(packetBytes) 28248
attr interpolationmode none
attr title "packet popped, sum(packetBytes)"
statistic RoutingScenario.node[1].wlan[0].mac.dcf.channelAccess.pendingQueue queueingTime:histogram
field count 36
field mean 0.0067437312866667
field stddev 0.016280040584415
field min 0
field max 0.055996438062
field sum 0.24277432632
field sqrsum 0.01091359507006
attr interpolationmode none
attr source queueingTime(packetPopped)
attr title "queueing times, histogram"
attr unit s
bin	-inf	0
bin	0	29
bin	0.001	0
bin	0.002	0
bin	0.003	0
bin	0.004	0
bin	0.005	0
bin	0.006	0
bin	0.007	0
bin	0.008	1
bin	0.009	0
bin	0.01	0
bin	0.011	1
bin	0.012	1
bin	0.013	0
bin	0.014	0
bin	0.015	0
bin	0.016	0
bin	0.017	0
bin	0.018	0
bin	0.019	0
bin	0.02	0
bin	0.021	0
bin	0.022	0
bin	0.023	0
bin	0.024	0
bin	0.025	0
bin	0.026	0
bin	0.027	0
bin	0.028	0
bin	0.029	0
bin	0.03	0
bin	0.031	0
bin	0.032	0
bin	0.033	0
bin	0.034	0
bin	0.035	0
bin	0.036	0
bin	0.037	0
bin	0.038	0
bin	0.039	0
bin	0.04	0
bin	0.041	0
bin	0.042	0
bin	0.043	0
bin	0.044	0
bin	0.045	0
bin	0.046	0
bin	0.047	2
bin	0.048	0
bin	0.049	0
bin	0.05	0
bin	0.051	0
bin	0.052	0
bin	0.053	1
bin	0.054	0
bin	0.055	1
bin	0.056	0
bin	0.057	0
bin	0.058	0
bin	0.059	0
bin	0.06	0
bin	0.061	0
bin	0.062	0
bin	0.063	0
bin	0.064	0
bin	0.065	0
bin	0.066	0
bin	0.067	0
bin	0.068	0
bin	0.069	0
bin	0.07	0
scalar RoutingScenario.node[1].wlan[0].mac.dcf.channelAccess.pendingQueue queueLength:max 5
attr interpolationmode sample-hold
attr source "count(packetPushed) - count(packetPopped) - count(packetRemoved) - count(packetDropped)"
attr title "queue length, max"
scalar RoutingScenario.node[1].wlan[0].mac.dcf.channelAccess.pendingQueue queueLength:timeavg 0.27205593879765
attr interpolationmode sample-hold
attr source "count(packetPushed) - count(packetPopped) - count(packetRemoved) - count(packetDropped)"
attr title "queue length, timeavg"
scalar RoutingScenario.node[1].wlan[0].mac.dcf.channelAccess.pendingQueue packetPushed:count 36
attr interpolationmode none
attr title "packet pushed, count"
scalar RoutingScenario.node[1].wlan[0].mac.dcf.channelAccess.pendingQueue packetPushed:sum(packetBytes) 28248
attr interpolationmode none
attr title "packet pushed, sum(packetBytes)"
scalar RoutingScenario.node[1].wlan[0].mac.dcf.channelAccess.pendingQueue packetDropQueueOverflow:count 0
attr interpolationmode none
attr source packetDropReasonIsQueueOverflow(packetDropped)
attr title "packet drops: queue overflow, count"
scalar RoutingScenario.node[1].wlan[0].mac.dcf.channelAccess.pendingQueue packetDropQueueOverflow:sum(packetBytes) 0
attr interpolationmode none
attr source packetDropReasonIsQueueOverflow(packetDropped)
attr title "packet drops: queue overflow, sum(packetBytes)"
scalar RoutingScenario.node[1].wlan[0].mac.dcf.channelAccess.pendingQueue packetRemoved:count 0
attr interpolationmode none
attr title "packets removed, count"
scalar RoutingScenario.node[1].wlan[0].mac.dcf.channelAccess.pendingQueue packetRemoved:sum(packetBytes) 0
attr interpolationmode none
attr title "packets removed, sum(packetBytes)"
statistic RoutingScenario.node[1].wlan[0].mac.dcf.channelAccess.inProgressFrames queueingTime:histogram
field count 36
field mean 0.0045914645362222
field stddev 0.010883519533835
field min 8.8e-05
field max 0.050080350029
field sum 0.165292723304
field sqrsum 0.0049047205876638
attr interpolationmode none
attr source queueingTime(packetDequeued)
attr title "queueing times, histogram"
bin	-inf	0
bin	0	20
bin	0.001	7
bin	0.002	3
bin	0.003	0
bin	0.004	0
bin	0.005	0
bin	0.006	2
bin	0.007	1
bin	0.008	0
bin	0.009	0
bin	0.01	0
bin	0.011	0
bin	0.012	0
bin	0.013	0
bin	0.014	0
bin	0.015	0
bin	0.016	0
bin	0.017	0
bin	0.018	0
bin	0.019	0
bin	0.02	1
bin	0.021	0
bin	0.022	0
bin	0.023	0
bin	0.024	0
bin	0.025	0
bin	0.026	0
bin	0.027	0
bin	0.028	0
bin	0.029	0
bin	0.03	0
bin	0.031	0
bin	0.032	0
bin	0.033	0
bin	0.034	0
bin	0.035	0
bin	0.036	0
bin	0.037	0
bin	0.038	0
bin	0.039	0
bin	0.04	0
bin	0.041	0
bin	0.042	1
bin	0.043	0
bin	0.044	0
bin	0.045	0
bin	0.046	0
bin	0.047	0
bin	0.048	0
bin	0.049	0
bin	0.05	1
bin	0.051	0
bin	0.052	0
bin	0.053	0
bin	0.054	0
bin	0.055	0
bin	0.056	0
bin	0.057	0
bin	0.058	0
bin	0.059	0
bin	0.06	0
bin	0.061	0
bin	0.062	0
bin	0.063	0
scalar RoutingScenario.node[1].wlan[0].mac.dcf.channelAccess.inProgressFrames queueLength:max 2
attr interpolationmode sample-hold
attr source "count(packetEnqueued) - count(packetDequeued)"
attr title "queue length, max"
scalar RoutingScenario.node[1].wlan[0].mac.dcf.channelAccess.inProgressFrames queueLength:timeavg 0.18523313392327
attr interpolationmode sample-hold
attr source "count(packetEnqueued) - count(packetDequeued)"
attr title "queue length, timeavg"
scalar RoutingScenario.node[1].wlan[0].mac.dcf.channelAccess.contention channelAccessGranted:count 61
attr title "channel access granted, count"
scalar RoutingScenario.node[1].wlan[0].mac.dcf.channelAccess.contention stateChanged:count 2742
attr interpolationmode none
attr title "contention state changed, count"
scalar RoutingScenario.node[1].wlan[0].mac.dcf.channelAccess channelOwnershipChanged:count 122
attr interpolationmode sample-hold
attr title "channel ownership, count"
scalar RoutingScenario.node[1].wlan[0].mac.dcf.originatorMacDataService packetAggregated:count 0
attr title "packets aggregated, count"
scalar RoutingScenario.node[1].wlan[0].mac.dcf.originatorMacDataService packetFragmented:count 0
attr title "packets fragmented, count"
scalar RoutingScenario.node[1].wlan[0].mac.dcf.recipientMacDataService packetDeaggregated:count 0
attr title "packets deaggregated, count"
scalar RoutingScenario.node[1].wlan[0].mac.dcf.recipientMacDataService packetDefragmented:count 18
attr title "packets defragmented, count"
scalar RoutingScenario.node[1].wlan[0].mac.dcf.recipientMacDataService packetDropDuplicateDetected:count 1
attr interpolationmode none
attr source packetDropReasonIsDuplicateDetected(packetDropped)
attr title "packet drops: duplicate detected, count"
scalar RoutingScenario.node[1].wlan[0].mac.dcf.recipientMacDataService packetDropDuplicateDetected:sum(packetBytes) 58
attr interpolationmode none
attr source packetDropReasonIsDuplicateDetected(packetDropped)
attr title "packet drops: duplicate detected, sum(packetBytes)"
scalar RoutingScenario.node[1].wlan[0].mac.dcf.recoveryProcedure retryLimitReached:count 2
attr title "retry limit reached, count"
scalar RoutingScenario.node[1].wlan[0].mac.dcf frameSequenceFinished:count 61
attr title "finished frame sequences, count"
statistic RoutingScenario.node[1].wlan[0].mac.dcf frameSequenceDuration:histogram
field count 61
field mean 0.00070529327078689
field stddev 0.00031203844684644
field min 8.8e-05
field max 0.001563747814
field sum 0.043022889518
field sqrsum 3.6185834005473e-05
attr source frameSequenceDuration(frameSequenceFinished)
attr title "frame sequence durations, histogram"
bin	-inf	0
bin	0	0
bin	2e-05	0
bin	4e-05	0
bin	6e-05	0
bin	8e-05	3
bin	0.0001	4
bin	0.00012	0
bin	0.00014	0
bin	0.00016	1
bin	0.00018	5
bin	0.0002	0
bin	0.00022	0
bin	0.00024	0
bin	0.00026	0
bin	0.00028	0
bin	0.0003	0
bin	0.00032	0
bin	0.00034	0
bin	0.00036	0
bin	0.00038	0
bin	0.0004	0
bin	0.00042	0
bin	0.00044	0
bin	0.00046	0
bin	0.00048	0
bin	0.0005	0
bin	0.00052	0
bin	0.00054	0
bin	0.00056	0
bin	0.00058	0
bin	0.0006	0
bin	0.00062	0
bin	0.00064	0
bin	0.00066	0
bin	0.00068	0
bin	0.0007	0
bin	0.00072	0
bin	0.00074	0
bin	0.00076	0
bin	0.00078	0
bin	0.0008	0
bin	0.00082	0
bin	0.00084	47
bin	0.00086	0
bin	0.00088	0
bin	0.0009	0
bin	0.00092	0
bin	0.00094	0
bin	0.00096	0
bin	0.00098	0
bin	0.001	0
bin	0.00102	0
bin	0.00104	0
bin	0.00106	0
bin	0.00108	0
bin	0.0011	0
bin	0.00112	0
bin	0.00114	0
bin	0.00116	0
bin	0.00118	0
bin	0.0012	0
bin	0.00122	0
bin	0.00124	0
bin	0.00126	0
bin	0.00128	0
bin	0.0013	0
bin	0.00132	0
bin	0.00134	0
bin	0.00136	0
bin	0.00138	0
bin	0.0014	0
bin	0.00142	0
bin	0.00144	0
bin	0.00146	0
bin	0.00148	0
bin	0.0015	0
bin	0.00152	0
bin	0.00154	0
bin	0.00156	1
bin	0.00158	0
bin	0.0016	0
bin	0.00162	0
bin	0.00164	0
bin	0.00166	0
bin	0.00168	0
bin	0.0017	0
bin	0.00172	0
bin	0.00174	0
bin	0.00176	0
bin	0.00178	0
bin	0.0018	0
bin	0.00182	0
bin	0.00184	0
bin	0.00186	0
bin	0.00188	0
bin	0.0019	0
bin	0.00192	0
bin	0.00194	0
statistic RoutingScenario.node[1].wlan[0].mac.dcf frameSequenceNumPackets:histogram
field count 61
field mean 1.8852459016393
field stddev 0.32137001808599
field min 1
field max 2
field sum 115
field sqrsum 223
attr source frameSequenceNumPackets(frameSequenceFinished)
attr title "frame sequences: number of packets, histogram"
bin	-inf	0
bin	0	0
bin	1	7
bin	2	54
bin	3	0
scalar RoutingScenario.node[1].wlan[0].mac.dcf packetReceivedFromPeer:count 46
attr interpolationmode none
attr title "packets received, count"
scalar RoutingScenario.node[1].wlan[0].mac.dcf packetReceivedFromPeer:sum(packetBytes) 1744
attr interpolationmode none
attr title "packets received, sum(packetBytes)"
scalar RoutingScenario.node[1].wlan[0].mac.dcf packetReceivedFromPeerUnicast:count 30
attr interpolationmode none
attr source ieee80211Unicast(packetReceivedFromPeer)
attr title "packets received: unicast, count"
scalar RoutingScenario.node[1].wlan[0].mac.dcf packetReceivedFromPeerUnicast:sum(packetBytes) 572
attr interpolationmode none
attr source ieee80211Unicast(packetReceivedFromPeer)
attr title "packets received: unicast, sum(packetBytes)"
scalar RoutingScenario.node[1].wlan[0].mac.dcf packetReceivedFromPeerMulticast:count 16
attr interpolationmode none
attr source ieee80211Multicast(packetReceivedFromPeer)
attr title "packets received: multicast, count"
scalar RoutingScenario.node[1].wlan[0].mac.dcf packetReceivedFromPeerMulticast:sum(packetBytes) 1172
attr interpolationmode none
attr source ieee80211Multicast(packetReceivedFromPeer)
attr title "packets received: multicast, sum(packetBytes)"
scalar RoutingScenario.node[1].wlan[0].mac.dcf packetReceivedFromPeerBroadcast:count 16
attr interpolationmode none
attr source ieee80211Broadcast(packetReceivedFromPeer)
attr title "packets received: broadcast, count"
scalar RoutingScenario.node[1].wlan[0].mac.dcf packetReceivedFromPeerBroadcast:sum(packetBytes) 1172
attr interpolationmode none
attr source ieee80211Broadcast(packetReceivedFromPeer)
attr title "packets received: broadcast, sum(packetBytes)"
scalar RoutingScenario.node[1].wlan[0].mac.dcf packetReceivedFromPeerWithRetry:count 1
attr interpolationmode none
attr source ieee80211Retry(packetReceivedFromPeer)
attr title "packets received: with retry, count"
scalar RoutingScenario.node[1].wlan[0].mac.dcf packetReceivedFromPeerWithRetry:sum(packetBytes) 58
attr interpolationmode none
attr source ieee80211Retry(packetReceivedFromPeer)
attr title "packets received: with retry, sum(packetBytes)"
scalar RoutingScenario.node[1].wlan[0].mac.dcf packetReceivedFromPeerWithoutRetry:count 45
attr interpolationmode none
attr source ieee80211NotRetry(packetReceivedFromPeer)
attr title "packets received: without retry, count"
scalar RoutingScenario.node[1].wlan[0].mac.dcf packetReceivedFromPeerWithoutRetry:sum(packetBytes) 1686
attr interpolationmode none
attr source ieee80211NotRetry(packetReceivedFromPeer)
attr title "packets received: without retry, sum(packetBytes)"
scalar RoutingScenario.node[1].wlan[0].mac.dcf packetSentToPeer:count 64
attr interpolationmode none
attr title "packets sent, count"
scalar RoutingScenario.node[1].wlan[0].mac.dcf packetSentToPeer:sum(packetBytes) 51780
attr interpolationmode none
attr title "packets sent, sum(packetBytes)"
scalar RoutingScenario.node[1].wlan[0].mac.dcf packetSentToPeerUnicast:count 57
attr interpolationmode none
attr source ieee80211Unicast(packetSentToPeer)
attr title "packets sent: unicast, count"
scalar RoutingScenario.node[1].wlan[0].mac.dcf packetSentToPeerUnicast:sum(packetBytes) 51254
attr interpolationmode none
attr source ieee80211Unicast(packetSentToPeer)
attr title "packets sent: unicast, sum(packetBytes)"
scalar RoutingScenario.node[1].wlan[0].mac.dcf packetSentToPeerMulticast:count 7
attr interpolationmode none
attr source ieee80211Multicast(packetSentToPeer)
attr title "packets sent: multicast, count"
scalar RoutingScenario.node[1].wlan[0].mac.dcf packetSentToPeerMulticast:sum(packetBytes) 526
attr interpolationmode none
attr source ieee80211Multicast(packetSentToPeer)
attr title "packets sent: multicast, sum(packetBytes)"
scalar RoutingScenario.node[1].wlan[0].mac.dcf packetSentToPeerBroadcast:count 7
attr interpolationmode none
attr source ieee80211Broadcast(packetSentToPeer)
attr title "packets sent: broadcast , count"
scalar RoutingScenario.node[1].wlan[0].mac.dcf packetSentToPeerBroadcast:sum(packetBytes) 526
attr interpolationmode none
attr source ieee80211Broadcast(packetSentToPeer)
attr title "packets sent: broadcast , sum(packetBytes)"
scalar RoutingScenario.node[1].wlan[0].mac.dcf packetSentToPeerWithRetry:count 25
attr interpolationmode none
attr source ieee80211Retry(packetSentToPeer)
attr title "packets sent: with retry, count"
scalar RoutingScenario.node[1].wlan[0].mac.dcf packetSentToPeerWithRetry:sum(packetBytes) 23490
attr interpolationmode none
attr source ieee80211Retry(packetSentToPeer)
attr title "packets sent: with retry, sum(packetBytes)"
scalar RoutingScenario.node[1].wlan[0].mac.dcf packetSentToPeerWithoutRetry:count 39
attr interpolationmode none
attr source ieee80211NotRetry(packetSentToPeer)
attr title "packets sent: without retry, count"
scalar RoutingScenario.node[1].wlan[0].mac.dcf packetSentToPeerWithoutRetry:sum(packetBytes) 28290
attr interpolationmode none
attr source ieee80211NotRetry(packetSentToPeer)
attr title "packets sent: without retry, sum(packetBytes)"
scalar RoutingScenario.node[1].wlan[0].mac.dcf packetDrop:count 357
attr interpolationmode none
attr source packetDropped
attr title "packet drops, count"
scalar RoutingScenario.node[1].wlan[0].mac.dcf packetDrop:sum(packetBytes) 114350
attr interpolationmode none
attr source packetDropped
attr title "packet drops, sum(packetBytes)"
scalar RoutingScenario.node[1].wlan[0].mac.dcf packetDropNotAddressedToUs:count 354
attr interpolationmode none
attr source packetDropReasonIsNotAddressedToUs(packetDropped)
attr title "packet drops: not addressed to us, count"
scalar RoutingScenario.node[1].wlan[0].mac.dcf packetDropNotAddressedToUs:sum(packetBytes) 112176
attr interpolationmode none
attr source packetDropReasonIsNotAddressedToUs(packetDropped)
attr title "packet drops: not addressed to us, sum(packetBytes)"
scalar RoutingScenario.node[1].wlan[0].mac.dcf packetDropQueueOverflow:count 0
attr interpolationmode none
attr source packetDropReasonIsQueueOverflow(packetDropped)
attr title "packet drops: queue overflow, count"
scalar RoutingScenario.node[1].wlan[0].mac.dcf packetDropQueueOverflow:sum(packetBytes) 0
attr interpolationmode none
attr source packetDropReasonIsQueueOverflow(packetDropped)
attr title "packet drops: queue overflow, sum(packetBytes)"
scalar RoutingScenario.node[1].wlan[0].mac.dcf packetDropRetryLimitReached:count 2
attr interpolationmode none
attr source packetDropReasonIsRetryLimitReached(packetDropped)
attr title "packet drops: retry limit reached, count"
scalar RoutingScenario.node[1].wlan[0].mac.dcf packetDropRetryLimitReached:sum(packetBytes) 2116
attr interpolationmode none
attr source packetDropReasonIsRetryLimitReached(packetDropped)
attr title "packet drops: retry limit reached, sum(packetBytes)"
scalar RoutingScenario.node[1].wlan[0].mac.dcf linkBroken:count 2
attr interpolationmode none
attr title "link breaks, count"
scalar RoutingScenario.node[1].wlan[0].mac packetReceivedFromLower:count 522
attr interpolationmode none
attr title "packets received from lower layer, count"
scalar RoutingScenario.node[1].wlan[0].mac packetReceivedFromLower:sum(packetBytes) 205832
attr interpolationmode none
attr title "packets received from lower layer, sum(packetBytes)"
scalar RoutingScenario.node[1].wlan[0].mac packetSentToLower:count 64
attr interpolationmode none
attr title "packets sent to lower layer, count"
scalar RoutingScenario.node[1].wlan[0].mac packetSentToLower:sum(packetBytes) 51780
attr interpolationmode none
attr title "packets sent to lower layer, sum(packetBytes)"
scalar RoutingScenario.node[1].wlan[0].mac packetReceivedFromUpper:count 36
attr interpolationmode none
attr title "packets received from upper layer, count"
scalar RoutingScenario.node[1].wlan[0].mac packetReceivedFromUpper:sum(packetBytes) 27240
attr interpolationmode none
attr title "packets received from upper layer, sum(packetBytes)"
scalar RoutingScenario.node[1].wlan[0].mac packetSentToUpper:count 18
attr interpolationmode none
attr title "packets sent to upper layer, count"
scalar RoutingScenario.node[1].wlan[0].mac packetSentToUpper:sum(packetBytes) 804
attr interpolationmode none
attr title "packets sent to upper layer, sum(packetBytes)"
scalar RoutingScenario.node[1].wlan[0].mac packetDrop:count 478
attr interpolationmode none
attr source packetDropped
attr title "packet drops, count"
scalar RoutingScenario.node[1].wlan[0].mac packetDrop:sum(packetBytes) 205204
attr interpolationmode none
attr source packetDropped
attr title "packet drops, sum(packetBytes)"
scalar RoutingScenario.node[1].wlan[0].mac packetDropIncorrectlyReceived:count 121
attr interpolationmode none
attr source packetDropReasonIsIncorrectlyReceived(packetDropped)
attr title "packet drops: incorrectly received, count"
scalar RoutingScenario.node[1].wlan[0].mac packetDropIncorrectlyReceived:sum(packetBytes) 90854
attr interpolationmode none
attr source packetDropReasonIsIncorrectlyReceived(packetDropped)
attr title "packet drops: incorrectly received, sum(packetBytes)"
scalar RoutingScenario.node[1].wlan[0].mac packetDropNotAddressedToUs:count 354
attr interpolationmode none
attr source packetDropReasonIsNotAddressedToUs(packetDropped)
attr title "packet drops: not addressed to us, count"
scalar RoutingScenario.node[1].wlan[0].mac packetDropNotAddressedToUs:sum(packetBytes) 112176
attr interpolationmode none
attr source packetDropReasonIsNotAddressedToUs(packetDropped)
attr title "packet drops: not addressed to us, sum(packetBytes)"
scalar RoutingScenario.node[1].wlan[0].mac packetDropQueueOverflow:count 0
attr interpolationmode none
attr source packetDropReasonIsQueueOverflow(packetDropped)
attr title "packet drops: queue overflow, count"
scalar RoutingScenario.node[1].wlan[0].mac packetDropQueueOverflow:sum(packetBytes) 0
attr interpolationmode none
attr source packetDropReasonIsQueueOverflow(packetDropped)
attr title "packet drops: queue overflow, sum(packetBytes)"
scalar RoutingScenario.node[1].wlan[0].mac packetDropRetryLimitReached:count 2
attr interpolationmode none
attr source packetDropReasonIsRetryLimitReached(packetDropped)
attr title "packet drops: retry limit reached, count"
scalar RoutingScenario.node[1].wlan[0].mac packetDropRetryLimitReached:sum(packetBytes) 2116
attr interpolationmode none
attr source packetDropReasonIsRetryLimitReached(packetDropped)
attr title "packet drops: retry limit reached, sum(packetBytes)"
scalar RoutingScenario.node[1].wlan[0].mac packetDropDuplicateDetected:count 1
attr interpolationmode none
attr source packetDropReasonIsDuplicateDetected(packetDropped)
attr title "packet drops: duplicate detected, count"
scalar RoutingScenario.node[1].wlan[0].mac packetDropDuplicateDetected:sum(packetBytes) 58
attr interpolationmode none
attr source packetDropReasonIsDuplicateDetected(packetDropped)
attr title "packet drops: duplicate detected, sum(packetBytes)"
scalar RoutingScenario.node[1].wlan[0].mac packetDropOther:count 0
attr interpolationmode none
attr source packetDropReasonIsOther(packetDropped)
attr title "packet drops: other, count"
scalar RoutingScenario.node[1].wlan[0].mac packetDropOther:sum(packetBytes) 0
attr interpolationmode none
attr source packetDropReasonIsOther(packetDropped)
attr title "packet drops: other, sum(packetBytes)"
scalar RoutingScenario.node[1].wlan[0].mac linkBroken:count 2
attr interpolationmode none
attr title "link breaks, count"
statistic RoutingScenario.node[1].wlan[0].radio radioChannel:histogram
field count 1
field mean 3
field stddev -nan
field min 3
field max 3
field sum 3
field sqrsum 9
attr interpolationmode sample-hold
attr source radioChannelChanged
attr title "Radio channel, histogram"
bin	-inf	0
bin	2	0
bin	3	1
bin	4	0
scalar RoutingScenario.node[1].wlan[0].radio radioMode:count 131
attr interpolationmode sample-hold
attr source radioModeChanged
attr title "Radio mode, count"
scalar RoutingScenario.node[1].wlan[0].radio receptionState:count 1175
attr interpolationmode sample-hold
attr source receptionStateChanged
attr title "Radio reception state, count"
scalar RoutingScenario.node[1].wlan[0].radio transmissionState:count 256
attr interpolationmode sample-hold
attr source transmissionStateChanged
attr title "Radio transmission state, count"
statistic RoutingScenario.node[1].wlan[0].radio minSnir:histogram
field count 522
field mean 263.81467454201
field stddev 314.53619224635
field min 0.49259470613281
field max 4501.4572876734
field sum 137711.26011093
field sqrsum 87874352.724241
attr source minimumSnir(packetSentToUpper)
attr title "Min SNIR, histogram"
bin	-inf	0
bin	0	269
bin	100	0
bin	200	0
bin	300	0
bin	400	225
bin	500	0
bin	600	0
bin	700	0
bin	800	27
bin	900	0
bin	1000	0
bin	1100	0
bin	1200	0
bin	1300	0
bin	1400	0
bin	1500	0
bin	1600	0
bin	1700	0
bin	1800	0
bin	1900	0
bin	2000	0
bin	2100	0
bin	2200	0
bin	2300	0
bin	2400	0
bin	2500	0
bin	2600	0
bin	2700	0
bin	2800	0
bin	2900	0
bin	3000	0
bin	3100	0
bin	3200	0
bin	3300	0
bin	3400	0
bin	3500	0
bin	3600	0
bin	3700	0
bin	3800	0
bin	3900	0
bin	4000	0
bin	4100	0
bin	4200	0
bin	4300	0
bin	4400	0
bin	4500	1
bin	4600	0
bin	4700	0
bin	4800	0
bin	4900	0
bin	5000	0
bin	5100	0
bin	5200	0
bin	5300	0
bin	5400	0
bin	5500	0
bin	5600	0
bin	5700	0
statistic RoutingScenario.node[1].wlan[0].radio packetErrorRate:histogram
field count 522
field mean 0.23578385101854
field stddev 0.4149097115917
field min 0
field max 1
field sum 123.07917023168
field sqrsum 118.71026656818
attr source packetErrorRate(packetSentToUpper)
attr title "Packet error rate, histogram"
bin	-inf	0
bin	0	380
bin	0.02	3
bin	0.04	0
bin	0.06	1
bin	0.08	0
bin	0.1	0
bin	0.12	0
bin	0.14	0
bin	0.16	12
bin	0.18	0
bin	0.2	0
bin	0.22	0
bin	0.24	4
bin	0.26	0
bin	0.28	0
bin	0.3	1
bin	0.32	0
bin	0.34	0
bin	0.36	0
bin	0.38	0
bin	0.4	0
bin	0.42	0
bin	0.44	0
bin	0.46	0
bin	0.48	0
bin	0.5	0
bin	0.52	0
bin	0.54	0
bin	0.56	0
bin	0.58	0
bin	0.6	0
bin	0.62	1
bin	0.64	3
bin	0.66	0
bin	0.68	0
bin	0.7	0
bin	0.72	0
bin	0.74	0
bin	0.76	0
bin	0.78	0
bin	0.8	0
bin	0.82	0
bin	0.84	0
bin	0.86	0
bin	0.88	0
bin	0.9	0
bin	0.92	0
bin	0.94	6
bin	0.96	0
bin	0.98	4
bin	1	107
bin	1.02	0
bin	1.04	0
bin	1.06	0
bin	1.08	0
bin	1.1	0
bin	1.12	0
bin	1.14	0
bin	1.16	0
bin	1.18	0
bin	1.2	0
bin	1.22	0
bin	1.24	0
bin	1.26	0
statistic RoutingScenario.node[1].wlan[0].radio bitErrorRate:histogram
field count 0
field mean -nan
field stddev nan
field min nan
field max nan
field sum 0
field sqrsum 0
attr source bitErrorRate(packetSentToUpper)
attr title "Bit error rate, histogram"
bin	-inf	0
bin	0	0
bin	1	0
statistic RoutingScenario.node[1].wlan[0].radio symbolErrorRate:histogram
field count 0
field mean -nan
field stddev nan
field min nan
field max nan
field sum 0
field sqrsum 0
attr source symbolErrorRate(packetSentToUpper)
attr title "Symbol error rate, histogram"
bin	-inf	0
bin	0	0
bin	1	0
scalar RoutingScenario.node[1].ipv4.ip packetDropAddressResolutionFailed:count 0
attr interpolationmode none
attr source packetDropReasonIsAddressResolutionFailed(packetDropped)
attr title "packet drop: address resolution failed, count"
scalar RoutingScenario.node[1].ipv4.ip packetDropAddressResolutionFailed:sum(packetBytes) 0
attr interpolationmode none
attr source packetDropReasonIsAddressResolutionFailed(packetDropped)
attr title "packet drop: address resolution failed, sum(packetBytes)"
scalar RoutingScenario.node[1].ipv4.ip packetDropHopLimitReached:count 0
attr interpolationmode none
attr source packetDropReasonIsHopLimitReached(packetDropped)
attr title "packet drop: hop limit reached, count"
scalar RoutingScenario.node[1].ipv4.ip packetDropHopLimitReached:sum(packetBytes) 0
attr interpolationmode none
attr source packetDropReasonIsHopLimitReached(packetDropped)
attr title "packet drop: hop limit reached, sum(packetBytes)"
scalar RoutingScenario.node[1].ipv4.ip packetDropForwardingDisabled:count 0
attr interpolationmode none
attr source packetDropReasonIsForwardingDisabled(packetDropped)
attr title "packet drop: forwarding disabled, count"
scalar RoutingScenario.node[1].ipv4.ip packetDropForwardingDisabled:sum(packetBytes) 0
attr interpolationmode none
attr source packetDropReasonIsForwardingDisabled(packetDropped)
attr title "packet drop: forwarding disabled, sum(packetBytes)"
scalar RoutingScenario.node[1].ipv4.ip packetDropNoInterfaceFound:count 0
attr interpolationmode none
attr source packetDropReasonIsNoInterfaceFound(packetDropped)
attr title "packet drop: no interface found, count"
scalar RoutingScenario.node[1].ipv4.ip packetDropNoInterfaceFound:sum(packetBytes) 0
attr interpolationmode none
attr source packetDropReasonIsNoInterfaceFound(packetDropped)
attr title "packet drop: no interface found, sum(packetBytes)"
scalar RoutingScenario.node[1].ipv4.ip packetDropNoRouteFound:count 0
attr interpolationmode none
attr source packetDropReasonIsNoRouteFound(packetDropped)
attr title "packet drop: no route found, count"
scalar RoutingScenario.node[1].ipv4.ip packetDropNoRouteFound:sum(packetBytes) 0
attr interpolationmode none
attr source packetDropReasonIsNoRouteFound(packetDropped)
attr title "packet drop: no route found, sum(packetBytes)"
scalar RoutingScenario.node[1].ipv4.ip packetDropUndefined:count 0
attr interpolationmode none
attr source packetDropReasonIsUndefined(packetDropped)
attr title "packet drop: undefined, count"
scalar RoutingScenario.node[1].ipv4.ip packetDropUndefined:sum(packetBytes) 0
attr interpolationmode none
attr source packetDropReasonIsUndefined(packetDropped)
attr title "packet drop: undefined, sum(packetBytes)"
scalar RoutingScenario.node[1].ipv4.arp arpResolutionFailed:count 0
attr title "ARP failed resolutions, count"
scalar RoutingScenario.node[1].ipv4.arp arpResolutionCompleted:count 6
attr title "ARP completed resolutions, count"
scalar RoutingScenario.node[1].ipv4.arp arpResolutionInitiated:count 2
attr title "ARP initiated resolutions, count"
scalar RoutingScenario.node[1].ipv4.arp arpReplySent:count 1
attr source arpReplySent
attr title "ARP replies sent, count"
scalar RoutingScenario.node[1].ipv4.arp arpReplySent:sum(packetBytes) 28
attr source arpReplySent
attr title "ARP replies sent, sum(packetBytes)"
scalar RoutingScenario.node[1].ipv4.arp arpRequestSent:count 2
attr source arpRequestSent
attr title "ARP request sent, count"
scalar RoutingScenario.node[1].ipv4.arp arpRequestSent:sum(packetBytes) 56
attr source arpRequestSent
attr title "ARP request sent, sum(packetBytes)"
scalar RoutingScenario.node[1].udp packetReceived:count 11
attr interpolationmode none
attr source packetReceived
attr title "packets received, count"
scalar RoutingScenario.node[1].udp packetReceived:sum(packetBytes) 352
attr interpolationmode none
attr source packetReceived
attr title "packets received, sum(packetBytes)"
scalar RoutingScenario.node[1].udp packetSent:count 88
attr interpolationmode none
attr source packetSent
attr title "packets sent, count"
scalar RoutingScenario.node[1].udp packetSent:sum(packetBytes) 81864
attr interpolationmode none
attr source packetSent
attr title "packets sent, sum(packetBytes)"
scalar RoutingScenario.node[1].udp passedUpPk:count 11
attr interpolationmode none
attr source packetSentToUpper
attr title "packets passed up, count"
scalar RoutingScenario.node[1].udp droppedPkWrongPort:count 0
attr interpolationmode none
attr source packetDropReasonIsNoPortFound(packetDropped)
attr title "packets dropped (wrong port), count"
scalar RoutingScenario.node[1].udp droppedPkBadChecksum:count 0
attr interpolationmode none
attr source packetDropReasonIsIncorrectlyReceived(packetDropped)
attr title "packets dropped (checksum error), count"
scalar RoutingScenario.node[1].app[0] "packets sent" 81
scalar RoutingScenario.node[1].app[0] "packets received" 0
scalar RoutingScenario.node[1].app[0] packetReceived:count 0
attr interpolationmode none
attr source packetReceived
attr title "packets received, count"
scalar RoutingScenario.node[1].app[0] packetReceived:sum(packetBytes) 0
attr interpolationmode none
attr source packetReceived
attr title "packets received, sum(packetBytes)"
statistic RoutingScenario.node[1].app[0] rcvdPkLifetime:stats
field count 0
field mean -nan
field stddev nan
field min nan
field max nan
field sum 0
field sqrsum 0
attr interpolationmode none
attr source dataAge(packetReceived)
attr title "received packet lifetime, stats"
attr unit s
scalar RoutingScenario.node[1].app[0] packetSent:count 81
attr interpolationmode none
attr source packetSent
attr title "packets sent, count"
scalar RoutingScenario.node[1].app[0] packetSent:sum(packetBytes) 81000
attr interpolationmode none
attr source packetSent
attr title "packets sent, sum(packetBytes)"
scalar RoutingScenario.node[2].lo[0].lo rcvdPkFromHl:count 0
attr interpolationmode none
attr source packetReceivedFromUpper
attr title "packets received from higher layer, count"
scalar RoutingScenario.node[2].lo[0].lo rcvdPkFromHl:sum(packetBytes) 0
attr interpolationmode none
attr source packetReceivedFromUpper
attr title "packets received from higher layer, sum(packetBytes)"
scalar RoutingScenario.node[2].lo[0].lo passedUpPk:count 0
attr interpolationmode none
attr source packetSentToUpper
attr title "packets passed to higher layer, count"
scalar RoutingScenario.node[2].lo[0].lo passedUpPk:sum(packetBytes) 0
attr interpolationmode none
attr source packetSentToUpper
attr title "packets passed to higher layer, sum(packetBytes)"
scalar RoutingScenario.node[2].wlan[0].mac.dcf.channelAccess.pendingQueue packetPopped:count 3
attr interpolationmode none
attr title "packet popped, count"
scalar RoutingScenario.node[2].wlan[0].mac.dcf.channelAccess.pendingQueue packetPopped:sum(packetBytes) 246
attr interpolationmode none
attr title "packet popped, sum(packetBytes)"
statistic RoutingScenario.node[2].wlan[0].mac.dcf.channelAccess.pendingQueue queueingTime:histogram
field count 3
field mean 0
field stddev 0
field min 0
field max 0
field sum 0
field sqrsum 0
attr interpolationmode none
attr source queueingTime(packetPopped)
attr title "queueing times, histogram"
attr unit s
bin	-inf	0
bin	-0.5	0
bin	-0.48	0
bin	-0.46	0
bin	-0.44	0
bin	-0.42	0
bin	-0.4	0
bin	-0.38	0
bin	-0.36	0
bin	-0.34	0
bin	-0.32	0
bin	-0.3	0
bin	-0.28	0
bin	-0.26	0
bin	-0.24	0
bin	-0.22	0
bin	-0.2	0
bin	-0.18	0
bin	-0.16	0
bin	-0.14	0
bin	-0.12	0
bin	-0.1	0
bin	-0.08	0
bin	-0.06	0
bin	-0.04	0
bin	-0.02	0
bin	0	3
bin	0.02	0
bin	0.04	0
bin	0.06	0
bin	0.08	0
bin	0.1	0
bin	0.12	0
bin	0.14	0
bin	0.16	0
bin	0.18	0
bin	0.2	0
bin	0.22	0
bin	0.24	0
bin	0.26	0
bin	0.28	0
bin	0.3	0
bin	0.32	0
bin	0.34	0
bin	0.36	0
bin	0.38	0
bin	0.4	0
bin	0.42	0
bin	0.44	0
bin	0.46	0
bin	0.48	0
bin	0.5	0
scalar RoutingScenario.node[2].wlan[0].mac.dcf.channelAccess.pendingQueue queueLength:max 1
attr interpolationmode sample-hold
attr source "count(packetPushed) - count(packetPopped) - count(packetRemoved) - count(packetDropped)"
attr title "queue length, max"
scalar RoutingScenario.node[2].wlan[0].mac.dcf.channelAccess.pendingQueue queueLength:timeavg 0
attr interpolationmode sample-hold
attr source "count(packetPushed) - count(packetPopped) - count(packetRemoved) - count(packetDropped)"
attr title "queue length, timeavg"
scalar RoutingScenario.node[2].wlan[0].mac.dcf.channelAccess.pendingQueue packetPushed:count 3
attr interpolationmode none
attr title "packet pushed, count"
scalar RoutingScenario.node[2].wlan[0].mac.dcf.channelAccess.pendingQueue packetPushed:sum(packetBytes) 246
attr interpolationmode none
attr title "packet pushed, sum(packetBytes)"
scalar RoutingScenario.node[2].wlan[0].mac.dcf.channelAccess.pendingQueue packetDropQueueOverflow:count 0
attr interpolationmode none
attr source packetDropReasonIsQueueOverflow(packetDropped)
attr title "packet drops: queue overflow, count"
scalar RoutingScenario.node[2].wlan[0].mac.dcf.channelAccess.pendingQueue packetDropQueueOverflow:sum(packetBytes) 0
attr interpolationmode none
attr source packetDropReasonIsQueueOverflow(packetDropped)
attr title "packet drops: queue overflow, sum(packetBytes)"
scalar RoutingScenario.node[2].wlan[0].mac.dcf.channelAccess.pendingQueue packetRemoved:count 0
attr interpolationmode none
attr title "packets removed, count"
scalar RoutingScenario.node[2].wlan[0].mac.dcf.channelAccess.pendingQueue packetRemoved:sum(packetBytes) 0
attr interpolationmode none
attr title "packets removed, sum(packetBytes)"
statistic RoutingScenario.node[2].wlan[0].mac.dcf.channelAccess.inProgressFrames queueingTime:histogram
field count 3
field mean 0.000104
field stddev 0
field min 0.000104
field max 0.000104
field sum 0.000312
field sqrsum 3.2448e-08
attr interpolationmode none
attr source queueingTime(packetDequeued)
attr title "queueing times, histogram"
bin	-inf	0
bin	0	3
bin	0.01	0
bin	0.02	0
bin	0.03	0
bin	0.04	0
bin	0.05	0
bin	0.06	0
bin	0.07	0
bin	0.08	0
bin	0.09	0
bin	0.1	0
bin	0.11	0
bin	0.12	0
bin	0.13	0
bin	0.14	0
bin	0.15	0
bin	0.16	0
bin	0.17	0
bin	0.18	0
bin	0.19	0
bin	0.2	0
bin	0.21	0
bin	0.22	0
bin	0.23	0
bin	0.24	0
bin	0.25	0
bin	0.26	0
bin	0.27	0
bin	0.28	0
bin	0.29	0
bin	0.3	0
bin	0.31	0
bin	0.32	0
bin	0.33	0
bin	0.34	0
bin	0.35	0
bin	0.36	0
bin	0.37	0
bin	0.38	0
bin	0.39	0
bin	0.4	0
bin	0.41	0
bin	0.42	0
bin	0.43	0
bin	0.44	0
bin	0.45	0
bin	0.46	0
bin	0.47	0
bin	0.48	0
bin	0.49	0
bin	0.5	0
bin	0.51	0
scalar RoutingScenario.node[2].wlan[0].mac.dcf.channelAccess.inProgressFrames queueLength:max 1
attr interpolationmode sample-hold
attr source "count(packetEnqueued) - count(packetDequeued)"
attr title "queue length, max"
scalar RoutingScenario.node[2].wlan[0].mac.dcf.channelAccess.inProgressFrames queueLength:timeavg 0.00034853630308271
attr interpolationmode sample-hold
attr source "count(packetEnqueued) - count(packetDequeued)"
attr title "queue length, timeavg"
scalar RoutingScenario.node[2].wlan[0].mac.dcf.channelAccess.contention channelAccessGranted:count 3
attr title "channel access granted, count"
scalar RoutingScenario.node[2].wlan[0].mac.dcf.channelAccess.contention stateChanged:count 342
attr interpolationmode none
attr title "contention state changed, count"
scalar RoutingScenario.node[2].wlan[0].mac.dcf.channelAccess channelOwnershipChanged:count 6
attr interpolationmode sample-hold
attr title "channel ownership, count"
scalar RoutingScenario.node[2].wlan[0].mac.dcf.originatorMacDataService packetAggregated:count 0
attr title "packets aggregated, count"
scalar RoutingScenario.node[2].wlan[0].mac.dcf.originatorMacDataService packetFragmented:count 0
attr title "packets fragmented, count"
scalar RoutingScenario.node[2].wlan[0].mac.dcf.recipientMacDataService packetDeaggregated:count 0
attr title "packets deaggregated, count"
scalar RoutingScenario.node[2].wlan[0].mac.dcf.recipientMacDataService packetDefragmented:count 2
attr title "packets defragmented, count"
scalar RoutingScenario.node[2].wlan[0].mac.dcf.recipientMacDataService packetDropDuplicateDetected:count 0
attr interpolationmode none
attr source packetDropReasonIsDuplicateDetected(packetDropped)
attr title "packet drops: duplicate detected, count"
scalar RoutingScenario.node[2].wlan[0].mac.dcf.recipientMacDataService packetDropDuplicateDetected:sum(packetBytes) 0
attr interpolationmode none
attr source packetDropReasonIsDuplicateDetected(packetDropped)
attr title "packet drops: duplicate detected, sum(packetBytes)"
scalar RoutingScenario.node[2].wlan[0].mac.dcf.recoveryProcedure retryLimitReached:count 0
attr title "retry limit reached, count"
scalar RoutingScenario.node[2].wlan[0].mac.dcf frameSequenceFinished:count 3
attr title "finished frame sequences, count"
statistic RoutingScenario.node[2].wlan[0].mac.dcf frameSequenceDuration:histogram
field count 3
field mean 0.000104
field stddev 0
field min 0.000104
field max 0.000104
field sum 0.000312
field sqrsum 3.2448e-08
attr source frameSequenceDuration(frameSequenceFinished)
attr title "frame sequence durations, histogram"
bin	-inf	0
bin	0	3
bin	0.01	0
bin	0.02	0
bin	0.03	0
bin	0.04	0
bin	0.05	0
bin	0.06	0
bin	0.07	0
bin	0.08	0
bin	0.09	0
bin	0.1	0
bin	0.11	0
bin	0.12	0
bin	0.13	0
bin	0.14	0
bin	0.15	0
bin	0.16	0
bin	0.17	0
bin	0.18	0
bin	0.19	0
bin	0.2	0
bin	0.21	0
bin	0.22	0
bin	0.23	0
bin	0.24	0
bin	0.25	0
bin	0.26	0
bin	0.27	0
bin	0.28	0
bin	0.29	0
bin	0.3	0
bin	0.31	0
bin	0.32	0
bin	0.33	0
bin	0.34	0
bin	0.35	0
bin	0.36	0
bin	0.37	0
bin	0.38	0
bin	0.39	0
bin	0.4	0
bin	0.41	0
bin	0.42	0
bin	0.43	0
bin	0.44	0
bin	0.45	0
bin	0.46	0
bin	0.47	0
bin	0.48	0
bin	0.49	0
bin	0.5	0
bin	0.51	0
statistic RoutingScenario.node[2].wlan[0].mac.dcf frameSequenceNumPackets:histogram
field count 3
field mean 1
field stddev 0
field min 1
field max 1
field sum 3
field sqrsum 3
attr source frameSequenceNumPackets(frameSequenceFinished)
attr title "frame sequences: number of packets, histogram"
bin	-inf	0
bin	0	0
bin	1	3
bin	2	0
scalar RoutingScenario.node[2].wlan[0].mac.dcf packetReceivedFromPeer:count 2
attr interpolationmode none
attr title "packets received, count"
scalar RoutingScenario.node[2].wlan[0].mac.dcf packetReceivedFromPeer:sum(packetBytes) 164
attr interpolationmode none
attr title "packets received, sum(packetBytes)"
scalar RoutingScenario.node[2].wlan[0].mac.dcf packetReceivedFromPeerUnicast:count 0
attr interpolationmode none
attr source ieee80211Unicast(packetReceivedFromPeer)
attr title "packets received: unicast, count"
scalar RoutingScenario.node[2].wlan[0].mac.dcf packetReceivedFromPeerUnicast:sum(packetBytes) 0
attr interpolationmode none
attr source ieee80211Unicast(packetReceivedFromPeer)
attr title "packets received: unicast, sum(packetBytes)"
scalar RoutingScenario.node[2].wlan[0].mac.dcf packetReceivedFromPeerMulticast:count 2
attr interpolationmode none
attr source ieee80211Multicast(packetReceivedFromPeer)
attr title "packets received: multicast, count"
scalar RoutingScenario.node[2].wlan[0].mac.dcf packetReceivedFromPeerMulticast:sum(packetBytes) 164
attr interpolationmode none
attr source ieee80211Multicast(packetReceivedFromPeer)
attr title "packets received: multicast, sum(packetBytes)"
scalar RoutingScenario.node[2].wlan[0].mac.dcf packetReceivedFromPeerBroadcast:count 2
attr interpolationmode none
attr source ieee80211Broadcast(packetReceivedFromPeer)
attr title "packets received: broadcast, count"
scalar RoutingScenario.node[2].wlan[0].mac.dcf packetReceivedFromPeerBroadcast:sum(packetBytes) 164
attr interpolationmode none
attr source ieee80211Broadcast(packetReceivedFromPeer)
attr title "packets received: broadcast, sum(packetBytes)"
scalar RoutingScenario.node[2].wlan[0].mac.dcf packetReceivedFromPeerWithRetry:count 0
attr interpolationmode none
attr source ieee80211Retry(packetReceivedFromPeer)
attr title "packets received: with retry, count"
scalar RoutingScenario.node[2].wlan[0].mac.dcf packetReceivedFromPeerWithRetry:sum(packetBytes) 0
attr interpolationmode none
attr source ieee80211Retry(packetReceivedFromPeer)
attr title "packets received: with retry, sum(packetBytes)"
scalar RoutingScenario.node[2].wlan[0].mac.dcf packetReceivedFromPeerWithoutRetry:count 2
attr interpolationmode none
attr source ieee80211NotRetry(packetReceivedFromPeer)
attr title "packets received: without retry, count"
scalar RoutingScenario.node[2].wlan[0].mac.dcf packetReceivedFromPeerWithoutRetry:sum(packetBytes) 164
attr interpolationmode none
attr source ieee80211NotRetry(packetReceivedFromPeer)
attr title "packets received: without retry, sum(packetBytes)"
scalar RoutingScenario.node[2].wlan[0].mac.dcf packetSentToPeer:count 3
attr interpolationmode none
attr title "packets sent, count"
scalar RoutingScenario.node[2].wlan[0].mac.dcf packetSentToPeer:sum(packetBytes) 246
attr interpolationmode none
attr title "packets sent, sum(packetBytes)"
scalar RoutingScenario.node[2].wlan[0].mac.dcf packetSentToPeerUnicast:count 0
attr interpolationmode none
attr source ieee80211Unicast(packetSentToPeer)
attr title "packets sent: unicast, count"
scalar RoutingScenario.node[2].wlan[0].mac.dcf packetSentToPeerUnicast:sum(packetBytes) 0
attr interpolationmode none
attr source ieee80211Unicast(packetSentToPeer)
attr title "packets sent: unicast, sum(packetBytes)"
scalar RoutingScenario.node[2].wlan[0].mac.dcf packetSentToPeerMulticast:count 3
attr interpolationmode none
attr source ieee80211Multicast(packetSentToPeer)
attr title "packets sent: multicast, count"
scalar RoutingScenario.node[2].wlan[0].mac.dcf packetSentToPeerMulticast:sum(packetBytes) 246
attr interpolationmode none
attr source ieee80211Multicast(packetSentToPeer)
attr title "packets sent: multicast, sum(packetBytes)"
scalar RoutingScenario.node[2].wlan[0].mac.dcf packetSentToPeerBroadcast:count 3
attr interpolationmode none
attr source ieee80211Broadcast(packetSentToPeer)
attr title "packets sent: broadcast , count"
scalar RoutingScenario.node[2].wlan[0].mac.dcf packetSentToPeerBroadcast:sum(packetBytes) 246
attr interpolationmode none
attr source ieee80211Broadcast(packetSentToPeer)
attr title "packets sent: broadcast , sum(packetBytes)"
scalar RoutingScenario.node[2].wlan[0].mac.dcf packetSentToPeerWithRetry:count 0
attr interpolationmode none
attr source ieee80211Retry(packetSentToPeer)
attr title "packets sent: with retry, count"
scalar RoutingScenario.node[2].wlan[0].mac.dcf packetSentToPeerWithRetry:sum(packetBytes) 0
attr interpolationmode none
attr source ieee80211Retry(packetSentToPeer)
attr title "packets sent: with retry, sum(packetBytes)"
scalar RoutingScenario.node[2].wlan[0].mac.dcf packetSentToPeerWithoutRetry:count 3
attr interpolationmode none
attr source ieee80211NotRetry(packetSentToPeer)
attr title "packets sent: without retry, count"
scalar RoutingScenario.node[2].wlan[0].mac.dcf packetSentToPeerWithoutRetry:sum(packetBytes) 246
attr interpolationmode none
attr source ieee80211NotRetry(packetSentToPeer)
attr title "packets sent: without retry, sum(packetBytes)"
scalar RoutingScenario.node[2].wlan[0].mac.dcf packetDrop:count 0
attr interpolationmode none
attr source packetDropped
attr title "packet drops, count"
scalar RoutingScenario.node[2].wlan[0].mac.dcf packetDrop:sum(packetBytes) 0
attr interpolationmode none
attr source packetDropped
attr title "packet drops, sum(packetBytes)"
scalar RoutingScenario.node[2].wlan[0].mac.dcf packetDropNotAddressedToUs:count 0
attr interpolationmode none
attr source packetDropReasonIsNotAddressedToUs(packetDropped)
attr title "packet drops: not addressed to us, count"
scalar RoutingScenario.node[2].wlan[0].mac.dcf packetDropNotAddressedToUs:sum(packetBytes) 0
attr interpolationmode none
attr source packetDropReasonIsNotAddressedToUs(packetDropped)
attr title "packet drops: not addressed to us, sum(packetBytes)"
scalar RoutingScenario.node[2].wlan[0].mac.dcf packetDropQueueOverflow:count 0
attr interpolationmode none
attr source packetDropReasonIsQueueOverflow(packetDropped)
attr title "packet drops: queue overflow, count"
scalar RoutingScenario.node[2].wlan[0].mac.dcf packetDropQueueOverflow:sum(packetBytes) 0
attr interpolationmode none
attr source packetDropReasonIsQueueOverflow(packetDropped)
attr title "packet drops: queue overflow, sum(packetBytes)"
scalar RoutingScenario.node[2].wlan[0].mac.dcf packetDropRetryLimitReached:count 0
attr interpolationmode none
attr source packetDropReasonIsRetryLimitReached(packetDropped)
attr title "packet drops: retry limit reached, count"
scalar RoutingScenario.node[2].wlan[0].mac.dcf packetDropRetryLimitReached:sum(packetBytes) 0
attr interpolationmode none
attr source packetDropReasonIsRetryLimitReached(packetDropped)
attr title "packet drops: retry limit reached, sum(packetBytes)"
scalar RoutingScenario.node[2].wlan[0].mac.dcf linkBroken:count 0
attr interpolationmode none
attr title "link breaks, count"
scalar RoutingScenario.node[2].wlan[0].mac packetReceivedFromLower:count 2
attr interpolationmode none
attr title "packets received from lower layer, count"
scalar RoutingScenario.node[2].wlan[0].mac packetReceivedFromLower:sum(packetBytes) 164
attr interpolationmode none
attr title "packets received from lower layer, sum(packetBytes)"
scalar RoutingScenario.node[2].wlan[0].mac packetSentToLower:count 3
attr interpolationmode none
attr title "packets sent to lower layer, count"
scalar RoutingScenario.node[2].wlan[0].mac packetSentToLower:sum(packetBytes) 246
attr interpolationmode none
attr title "packets sent to lower layer, sum(packetBytes)"
scalar RoutingScenario.node[2].wlan[0].mac packetReceivedFromUpper:count 3
attr interpolationmode none
attr title "packets received from upper layer, count"
scalar RoutingScenario.node[2].wlan[0].mac packetReceivedFromUpper:sum(packetBytes) 162
attr interpolationmode none
attr title "packets received from upper layer, sum(packetBytes)"
scalar RoutingScenario.node[2].wlan[0].mac packetSentToUpper:count 2
attr interpolationmode none
[...]
attr title "packets received: multicast, sum(packetBytes)"
scalar RoutingScenario.node[23].wlan[0].mac.dcf packetReceivedFromPeerBroadcast:count 3
attr interpolationmode none
attr source ieee80211Broadcast(packetReceivedFromPeer)
attr title "packets received: broadcast, count"
scalar RoutingScenario.node[23].wlan[0].mac.dcf packetReceivedFromPeerBroadcast:sum(packetBytes) 222
attr interpolationmode none
attr source ieee80211Broadcast(packetReceivedFromPeer)
attr title "packets received: broadcast, sum(packetBytes)"
scalar RoutingScenario.node[23].wlan[0].mac.dcf packetReceivedFromPeerWithRetry:count 0
attr interpolationmode none
attr source ieee80211Retry(packetReceivedFromPeer)
attr title "packets received: with retry, count"
scalar RoutingScenario.node[23].wlan[0].mac.dcf packetReceivedFromPeerWithRetry:sum(packetBytes) 0
attr interpolationmode none
attr source ieee80211Retry(packetReceivedFromPeer)
attr title "packets received: with retry, sum(packetBytes)"
scalar RoutingScenario.node[23].wlan[0].mac.dcf packetReceivedFromPeerWithoutRetry:count 72
attr interpolationmode none
attr source ieee80211NotRetry(packetReceivedFromPeer)
attr title "packets received: without retry, count"
scalar RoutingScenario.node[23].wlan[0].mac.dcf packetReceivedFromPeerWithoutRetry:sum(packetBytes) 1252
attr interpolationmode none
attr source ieee80211NotRetry(packetReceivedFromPeer)
attr title "packets received: without retry, sum(packetBytes)"
scalar RoutingScenario.node[23].wlan[0].mac.dcf packetSentToPeer:count 70
attr interpolationmode none
attr title "packets sent, count"
scalar RoutingScenario.node[23].wlan[0].mac.dcf packetSentToPeer:sum(packetBytes) 71040
attr interpolationmode none
attr title "packets sent, sum(packetBytes)"
scalar RoutingScenario.node[23].wlan[0].mac.dcf packetSentToPeerUnicast:count 69
attr interpolationmode none
attr source ieee80211Unicast(packetSentToPeer)
attr title "packets sent: unicast, count"
scalar RoutingScenario.node[23].wlan[0].mac.dcf packetSentToPeerUnicast:sum(packetBytes) 70958
attr interpolationmode none
attr source ieee80211Unicast(packetSentToPeer)
attr title "packets sent: unicast, sum(packetBytes)"
scalar RoutingScenario.node[23].wlan[0].mac.dcf packetSentToPeerMulticast:count 1
attr interpolationmode none
attr source ieee80211Multicast(packetSentToPeer)
attr title "packets sent: multicast, count"
scalar RoutingScenario.node[23].wlan[0].mac.dcf packetSentToPeerMulticast:sum(packetBytes) 82
attr interpolationmode none
attr source ieee80211Multicast(packetSentToPeer)
attr title "packets sent: multicast, sum(packetBytes)"
scalar RoutingScenario.node[23].wlan[0].mac.dcf packetSentToPeerBroadcast:count 1
attr interpolationmode none
attr source ieee80211Broadcast(packetSentToPeer)
attr title "packets sent: broadcast , count"
scalar RoutingScenario.node[23].wlan[0].mac.dcf packetSentToPeerBroadcast:sum(packetBytes) 82
attr interpolationmode none
attr source ieee80211Broadcast(packetSentToPeer)
attr title "packets sent: broadcast , sum(packetBytes)"
scalar RoutingScenario.node[23].wlan[0].mac.dcf packetSentToPeerWithRetry:count 0
attr interpolationmode none
attr source ieee80211Retry(packetSentToPeer)
attr title "packets sent: with retry, count"
scalar RoutingScenario.node[23].wlan[0].mac.dcf packetSentToPeerWithRetry:sum(packetBytes) 0
attr interpolationmode none
attr source ieee80211Retry(packetSentToPeer)
attr title "packets sent: with retry, sum(packetBytes)"
scalar RoutingScenario.node[23].wlan[0].mac.dcf packetSentToPeerWithoutRetry:count 70
attr interpolationmode none
attr source ieee80211NotRetry(packetSentToPeer)
attr title "packets sent: without retry, count"
scalar RoutingScenario.node[23].wlan[0].mac.dcf packetSentToPeerWithoutRetry:sum(packetBytes) 71040
attr interpolationmode none
attr source ieee80211NotRetry(packetSentToPeer)
attr title "packets sent: without retry, sum(packetBytes)"
scalar RoutingScenario.node[23].wlan[0].mac.dcf packetDrop:count 0
attr interpolationmode none
attr source packetDropped
attr title "packet drops, count"
scalar RoutingScenario.node[23].wlan[0].mac.dcf packetDrop:sum(packetBytes) 0
attr interpolationmode none
attr source packetDropped
attr title "packet drops, sum(packetBytes)"
scalar RoutingScenario.node[23].wlan[0].mac.dcf packetDropNotAddressedToUs:count 0
attr interpolationmode none
attr source packetDropReasonIsNotAddressedToUs(packetDropped)
attr title "packet drops: not addressed to us, count"
scalar RoutingScenario.node[23].wlan[0].mac.dcf packetDropNotAddressedToUs:sum(packetBytes) 0
attr interpolationmode none
attr source packetDropReasonIsNotAddressedToUs(packetDropped)
attr title "packet drops: not addressed to us, sum(packetBytes)"
scalar RoutingScenario.node[23].wlan[0].mac.dcf packetDropQueueOverflow:count 0
attr interpolationmode none
attr source packetDropReasonIsQueueOverflow(packetDropped)
attr title "packet drops: queue overflow, count"
scalar RoutingScenario.node[23].wlan[0].mac.dcf packetDropQueueOverflow:sum(packetBytes) 0
attr interpolationmode none
attr source packetDropReasonIsQueueOverflow(packetDropped)
attr title "packet drops: queue overflow, sum(packetBytes)"
scalar RoutingScenario.node[23].wlan[0].mac.dcf packetDropRetryLimitReached:count 0
attr interpolationmode none
attr source packetDropReasonIsRetryLimitReached(packetDropped)
attr title "packet drops: retry limit reached, count"
scalar RoutingScenario.node[23].wlan[0].mac.dcf packetDropRetryLimitReached:sum(packetBytes) 0
attr interpolationmode none
attr source packetDropReasonIsRetryLimitReached(packetDropped)
attr title "packet drops: retry limit reached, sum(packetBytes)"
scalar RoutingScenario.node[23].wlan[0].mac.dcf linkBroken:count 0
attr interpolationmode none
attr title "link breaks, count"
scalar RoutingScenario.node[23].wlan[0].mac packetReceivedFromLower:count 72
attr interpolationmode none
attr title "packets received from lower layer, count"
scalar RoutingScenario.node[23].wlan[0].mac packetReceivedFromLower:sum(packetBytes) 1252
attr interpolationmode none
attr title "packets received from lower layer, sum(packetBytes)"
scalar RoutingScenario.node[23].wlan[0].mac packetSentToLower:count 70
attr interpolationmode none
attr title "packets sent to lower layer, count"
scalar RoutingScenario.node[23].wlan[0].mac packetSentToLower:sum(packetBytes) 71040
attr interpolationmode none
attr title "packets sent to lower layer, sum(packetBytes)"
scalar RoutingScenario.node[23].wlan[0].mac packetReceivedFromUpper:count 69
attr interpolationmode none
attr title "packets received from upper layer, count"
scalar RoutingScenario.node[23].wlan[0].mac packetReceivedFromUpper:sum(packetBytes) 69094
attr interpolationmode none
attr title "packets received from upper layer, sum(packetBytes)"
scalar RoutingScenario.node[23].wlan[0].mac packetSentToUpper:count 4
attr interpolationmode none
attr title "packets sent to upper layer, count"
scalar RoutingScenario.node[23].wlan[0].mac packetSentToUpper:sum(packetBytes) 188
attr interpolationmode none
attr title "packets sent to upper layer, sum(packetBytes)"
scalar RoutingScenario.node[23].wlan[0].mac packetDrop:count 0
attr interpolationmode none
attr source packetDropped
attr title "packet drops, count"
scalar RoutingScenario.node[23].wlan[0].mac packetDrop:sum(packetBytes) 0
attr interpolationmode none
attr source packetDropped
attr title "packet drops, sum(packetBytes)"
scalar RoutingScenario.node[23].wlan[0].mac packetDropIncorrectlyReceived:count 0
attr interpolationmode none
attr source packetDropReasonIsIncorrectlyReceived(packetDropped)
attr title "packet drops: incorrectly received, count"
scalar RoutingScenario.node[23].wlan[0].mac packetDropIncorrectlyReceived:sum(packetBytes) 0
attr interpolationmode none
attr source packetDropReasonIsIncorrectlyReceived(packetDropped)
attr title "packet drops: incorrectly received, sum(packetBytes)"
scalar RoutingScenario.node[23].wlan[0].mac packetDropNotAddressedToUs:count 0
attr interpolationmode none
attr source packetDropReasonIsNotAddressedToUs(packetDropped)
attr title "packet drops: not addressed to us, count"
scalar RoutingScenario.node[23].wlan[0].mac packetDropNotAddressedToUs:sum(packetBytes) 0
attr interpolationmode none
attr source packetDropReasonIsNotAddressedToUs(packetDropped)
attr title "packet drops: not addressed to us, sum(packetBytes)"
scalar RoutingScenario.node[23].wlan[0].mac packetDropQueueOverflow:count 0
attr interpolationmode none
attr source packetDropReasonIsQueueOverflow(packetDropped)
attr title "packet drops: queue overflow, count"
scalar RoutingScenario.node[23].wlan[0].mac packetDropQueueOverflow:sum(packetBytes) 0
attr interpolationmode none
attr source packetDropReasonIsQueueOverflow(packetDropped)
attr title "packet drops: queue overflow, sum(packetBytes)"
scalar RoutingScenario.node[23].wlan[0].mac packetDropRetryLimitReached:count 0
attr interpolationmode none
attr source packetDropReasonIsRetryLimitReached(packetDropped)
attr title "packet drops: retry limit reached, count"
scalar RoutingScenario.node[23].wlan[0].mac packetDropRetryLimitReached:sum(packetBytes) 0
attr interpolationmode none
attr source packetDropReasonIsRetryLimitReached(packetDropped)
attr title "packet drops: retry limit reached, sum(packetBytes)"
scalar RoutingScenario.node[23].wlan[0].mac packetDropDuplicateDetected:count 0
attr interpolationmode none
attr source packetDropReasonIsDuplicateDetected(packetDropped)
attr title "packet drops: duplicate detected, count"
scalar RoutingScenario.node[23].wlan[0].mac packetDropDuplicateDetected:sum(packetBytes) 0
attr interpolationmode none
attr source packetDropReasonIsDuplicateDetected(packetDropped)
attr title "packet drops: duplicate detected, sum(packetBytes)"
scalar RoutingScenario.node[23].wlan[0].mac packetDropOther:count 0
attr interpolationmode none
attr source packetDropReasonIsOther(packetDropped)
attr title "packet drops: other, count"
scalar RoutingScenario.node[23].wlan[0].mac packetDropOther:sum(packetBytes) 0
attr interpolationmode none
attr source packetDropReasonIsOther(packetDropped)
attr title "packet drops: other, sum(packetBytes)"
scalar RoutingScenario.node[23].wlan[0].mac linkBroken:count 0
attr interpolationmode none
attr title "link breaks, count"
statistic RoutingScenario.node[23].wlan[0].radio radioChannel:histogram
field count 1
field mean 3
field stddev -nan
field min 3
field max 3
field sum 3
field sqrsum 9
attr interpolationmode sample-hold
attr source radioChannelChanged
attr title "Radio channel, histogram"
bin	-inf	0
bin	2	0
bin	3	1
bin	4	0
scalar RoutingScenario.node[23].wlan[0].radio radioMode:count 143
attr interpolationmode sample-hold
attr source radioModeChanged
attr title "Radio mode, count"
scalar RoutingScenario.node[23].wlan[0].radio receptionState:count 287
attr interpolationmode sample-hold
attr source receptionStateChanged
attr title "Radio reception state, count"
scalar RoutingScenario.node[23].wlan[0].radio transmissionState:count 280
attr interpolationmode sample-hold
attr source transmissionStateChanged
attr title "Radio transmission state, count"
statistic RoutingScenario.node[23].wlan[0].radio minSnir:histogram
field count 72
field mean 72591.913153698
field stddev 76442.208772805
field min 1468.9836660916
field max 162886.85635326
field sum 5226617.7470663
field sqrsum 794292382609.23
attr source minimumSnir(packetSentToUpper)
attr title "Min SNIR, histogram"
bin	-inf	0
bin	0	13
bin	2000	23
bin	4000	3
bin	6000	0
bin	8000	0
bin	10000	0
bin	12000	0
bin	14000	0
bin	16000	0
bin	18000	0
bin	20000	0
bin	22000	0
bin	24000	0
bin	26000	0
bin	28000	0
bin	30000	0
bin	32000	0
bin	34000	0
bin	36000	0
bin	38000	0
bin	40000	0
bin	42000	0
bin	44000	0
bin	46000	0
bin	48000	0
bin	50000	0
bin	52000	0
bin	54000	0
bin	56000	0
bin	58000	0
bin	60000	0
bin	62000	0
bin	64000	0
bin	66000	0
bin	68000	0
bin	70000	0
bin	72000	0
bin	74000	0
bin	76000	0
bin	78000	0
bin	80000	0
bin	82000	0
bin	84000	0
bin	86000	0
bin	88000	0
bin	90000	0
bin	92000	0
bin	94000	0
bin	96000	0
bin	98000	0
bin	100000	0
bin	102000	0
bin	104000	0
bin	106000	0
bin	108000	0
bin	110000	0
bin	112000	0
bin	114000	0
bin	116000	0
bin	118000	0
bin	120000	0
bin	122000	0
bin	124000	0
bin	126000	0
bin	128000	0
bin	130000	0
bin	132000	0
bin	134000	0
bin	136000	0
bin	138000	0
bin	140000	0
bin	142000	0
bin	144000	0
bin	146000	2
bin	148000	0
bin	150000	8
bin	152000	0
bin	154000	10
bin	156000	6
bin	158000	4
bin	160000	2
bin	162000	1
bin	164000	0
bin	166000	0
bin	168000	0
bin	170000	0
bin	172000	0
bin	174000	0
bin	176000	0
bin	178000	0
bin	180000	0
bin	182000	0
bin	184000	0
bin	186000	0
bin	188000	0
bin	190000	0
bin	192000	0
bin	194000	0
bin	196000	0
bin	198000	0
bin	200000	0
bin	202000	0
bin	204000	0
statistic RoutingScenario.node[23].wlan[0].radio packetErrorRate:histogram
field count 72
field mean 0
field stddev 0
field min 0
field max 0
field sum 0
field sqrsum 0
attr source packetErrorRate(packetSentToUpper)
attr title "Packet error rate, histogram"
bin	-inf	0
bin	-0.5	0
bin	-0.48	0
bin	-0.46	0
bin	-0.44	0
bin	-0.42	0
bin	-0.4	0
bin	-0.38	0
bin	-0.36	0
bin	-0.34	0
bin	-0.32	0
bin	-0.3	0
bin	-0.28	0
bin	-0.26	0
bin	-0.24	0
bin	-0.22	0
bin	-0.2	0
bin	-0.18	0
bin	-0.16	0
bin	-0.14	0
bin	-0.12	0
bin	-0.1	0
bin	-0.08	0
bin	-0.06	0
bin	-0.04	0
bin	-0.02	0
bin	0	72
bin	0.02	0
bin	0.04	0
bin	0.06	0
bin	0.08	0
bin	0.1	0
bin	0.12	0
bin	0.14	0
bin	0.16	0
bin	0.18	0
bin	0.2	0
bin	0.22	0
bin	0.24	0
bin	0.26	0
bin	0.28	0
bin	0.3	0
bin	0.32	0
bin	0.34	0
bin	0.36	0
bin	0.38	0
bin	0.4	0
bin	0.42	0
bin	0.44	0
bin	0.46	0
bin	0.48	0
bin	0.5	0
statistic RoutingScenario.node[23].wlan[0].radio bitErrorRate:histogram
field count 0
field mean -nan
field stddev nan
field min nan
field max nan
field sum 0
field sqrsum 0
attr source bitErrorRate(packetSentToUpper)
attr title "Bit error rate, histogram"
bin	-inf	0
bin	0	0
bin	1	0
statistic RoutingScenario.node[23].wlan[0].radio symbolErrorRate:histogram
field count 0
field mean -nan
field stddev nan
field min nan
field max nan
field sum 0
field sqrsum 0
attr source symbolErrorRate(packetSentToUpper)
attr title "Symbol error rate, histogram"
bin	-inf	0
bin	0	0
bin	1	0
scalar RoutingScenario.node[23].ipv4.ip packetDropAddressResolutionFailed:count 0
attr interpolationmode none
attr source packetDropReasonIsAddressResolutionFailed(packetDropped)
attr title "packet drop: address resolution failed, count"
scalar RoutingScenario.node[23].ipv4.ip packetDropAddressResolutionFailed:sum(packetBytes) 0
attr interpolationmode none
attr source packetDropReasonIsAddressResolutionFailed(packetDropped)
attr title "packet drop: address resolution failed, sum(packetBytes)"
scalar RoutingScenario.node[23].ipv4.ip packetDropHopLimitReached:count 0
attr interpolationmode none
attr source packetDropReasonIsHopLimitReached(packetDropped)
attr title "packet drop: hop limit reached, count"
scalar RoutingScenario.node[23].ipv4.ip packetDropHopLimitReached:sum(packetBytes) 0
attr interpolationmode none
attr source packetDropReasonIsHopLimitReached(packetDropped)
attr title "packet drop: hop limit reached, sum(packetBytes)"
scalar RoutingScenario.node[23].ipv4.ip packetDropForwardingDisabled:count 0
attr interpolationmode none
attr source packetDropReasonIsForwardingDisabled(packetDropped)
attr title "packet drop: forwarding disabled, count"
scalar RoutingScenario.node[23].ipv4.ip packetDropForwardingDisabled:sum(packetBytes) 0
attr interpolationmode none
attr source packetDropReasonIsForwardingDisabled(packetDropped)
attr title "packet drop: forwarding disabled, sum(packetBytes)"
scalar RoutingScenario.node[23].ipv4.ip packetDropNoInterfaceFound:count 0
attr interpolationmode none
attr source packetDropReasonIsNoInterfaceFound(packetDropped)
attr title "packet drop: no interface found, count"
scalar RoutingScenario.node[23].ipv4.ip packetDropNoInterfaceFound:sum(packetBytes) 0
attr interpolationmode none
attr source packetDropReasonIsNoInterfaceFound(packetDropped)
attr title "packet drop: no interface found, sum(packetBytes)"
scalar RoutingScenario.node[23].ipv4.ip packetDropNoRouteFound:count 0
attr interpolationmode none
attr source packetDropReasonIsNoRouteFound(packetDropped)
attr title "packet drop: no route found, count"
scalar RoutingScenario.node[23].ipv4.ip packetDropNoRouteFound:sum(packetBytes) 0
attr interpolationmode none
attr source packetDropReasonIsNoRouteFound(packetDropped)
attr title "packet drop: no route found, sum(packetBytes)"
scalar RoutingScenario.node[23].ipv4.ip packetDropUndefined:count 0
attr interpolationmode none
attr source packetDropReasonIsUndefined(packetDropped)
attr title "packet drop: undefined, count"
scalar RoutingScenario.node[23].ipv4.ip packetDropUndefined:sum(packetBytes) 0
attr interpolationmode none
attr source packetDropReasonIsUndefined(packetDropped)
attr title "packet drop: undefined, sum(packetBytes)"
scalar RoutingScenario.node[23].ipv4.arp arpResolutionFailed:count 0
attr title "ARP failed resolutions, count"
scalar RoutingScenario.node[23].ipv4.arp arpResolutionCompleted:count 1
attr title "ARP completed resolutions, count"
scalar RoutingScenario.node[23].ipv4.arp arpResolutionInitiated:count 0
attr title "ARP initiated resolutions, count"
scalar RoutingScenario.node[23].ipv4.arp arpReplySent:count 1
attr source arpReplySent
attr title "ARP replies sent, count"
scalar RoutingScenario.node[23].ipv4.arp arpReplySent:sum(packetBytes) 28
attr source arpReplySent
attr title "ARP replies sent, sum(packetBytes)"
scalar RoutingScenario.node[23].ipv4.arp arpRequestSent:count 0
attr source arpRequestSent
attr title "ARP request sent, count"
scalar RoutingScenario.node[23].ipv4.arp arpRequestSent:sum(packetBytes) 0
attr source arpRequestSent
attr title "ARP request sent, sum(packetBytes)"
scalar RoutingScenario.node[23].udp packetReceived:count 3
attr interpolationmode none
attr source packetReceived
attr title "packets received, count"
scalar RoutingScenario.node[23].udp packetReceived:sum(packetBytes) 92
attr interpolationmode none
attr source packetReceived
attr title "packets received, sum(packetBytes)"
scalar RoutingScenario.node[23].udp packetSent:count 68
attr interpolationmode none
attr source packetSent
attr title "packets sent, count"
scalar RoutingScenario.node[23].udp packetSent:sum(packetBytes) 67568
attr interpolationmode none
attr source packetSent
attr title "packets sent, sum(packetBytes)"
scalar RoutingScenario.node[23].udp passedUpPk:count 3
attr interpolationmode none
attr source packetSentToUpper
attr title "packets passed up, count"
scalar RoutingScenario.node[23].udp droppedPkWrongPort:count 0
attr interpolationmode none
attr source packetDropReasonIsNoPortFound(packetDropped)
attr title "packets dropped (wrong port), count"
scalar RoutingScenario.node[23].udp droppedPkBadChecksum:count 0
attr interpolationmode none
attr source packetDropReasonIsIncorrectlyReceived(packetDropped)
attr title "packets dropped (checksum error), count"
scalar RoutingScenario.node[23].app[0] "packets sent" 67
scalar RoutingScenario.node[23].app[0] "packets received" 0
scalar RoutingScenario.node[23].app[0] packetReceived:count 0
attr interpolationmode none
attr source packetReceived
attr title "packets received, count"
scalar RoutingScenario.node[23].app[0] packetReceived:sum(packetBytes) 0
attr interpolationmode none
attr source packetReceived
attr title "packets received, sum(packetBytes)"
statistic RoutingScenario.node[23].app[0] rcvdPkLifetime:stats
field count 0
field mean -nan
field stddev nan
field min nan
field max nan
field sum 0
field sqrsum 0
attr interpolationmode none
attr source dataAge(packetReceived)
attr title "received packet lifetime, stats"
attr unit s
scalar RoutingScenario.node[23].app[0] packetSent:count 67
attr interpolationmode none
attr source packetSent
attr title "packets sent, count"
scalar RoutingScenario.node[23].app[0] packetSent:sum(packetBytes) 67000
attr interpolationmode none
attr source packetSent
attr title "packets sent, sum(packetBytes)"

